$DATA1 SOURCE='PrimeSim HSPICE' VERSION='T-2022.06-3 linux64' PARAM_COUNT=0
.TITLE '* first line is treated as comment'
 tpdfb            temper           alter#          
  1.255e-11         25.0000        1               
