$DATA1 SOURCE='PrimeSim HSPICE' VERSION='T-2022.06-3 linux64' PARAM_COUNT=0
.TITLE '** post-layout simulation at 0.90v for cscope plot'
 tpdr             tpdf             tr_a             tf_a            
 tr_y             tf_y             istat            ipeak           
 temper           alter#          
  2.504e-11        3.009e-11        8.000e-12        8.000e-12      
  3.394e-11        3.923e-11       -9.119e-09       -1.501e-04      
  2.500e+01       1               
