$DATA1 SOURCE='PrimeSim HSPICE' VERSION='T-2022.06-3 linux64' PARAM_COUNT=0
.TITLE 'inverter_load_test'
 tpdr_inv_load    temper           alter#          
  3.687e-11        2.500e+01       2               
