$DATA1 SOURCE='PrimeSim HSPICE' VERSION='T-2022.06-3 linux64' PARAM_COUNT=0
.TITLE '** post-layout simulation with parasitics'
 tpdr             tpdf             tr_y             tf_y            
 istat            ipeak            temper           alter#          
  2.666e-11        2.950e-11        2.994e-11        3.419e-11      
 -1.954e-08       -1.767e-04        2.500e+01       1               
