$DATA1 SOURCE='PrimeSim HSPICE' VERSION='T-2022.06-3 linux64' PARAM_COUNT=0
.TITLE '** post-layout simulation with parasitics'
 tpdr             tpdf             tr_y             tf_y            
 istat            ipeak            temper           alter#          
  3.072e-11        3.369e-11        3.508e-11        3.838e-11      
 -1.954e-08       -1.539e-04        2.500e+01       1               
