Using: /opt/synopsys/hspice/hspice/T-2022.06-3/hspice/linux64/hspice NAND-voltage-sweep.spice
 ****** PrimeSim HSPICE -- T-2022.06-3 linux64 (Aug 04 2022 7739753) ******
  Copyright (c) 1986 - 2025 by Synopsys, Inc. All Rights Reserved.
  This software and the associated documentation are proprietary
  to Synopsys, Inc. This software may only be used in accordance
  with the terms and conditions of a written license agreement with
  Synopsys, Inc. All other use, reproduction, or distribution of
  this software is strictly prohibited.
  Input File: NAND-voltage-sweep.spice                                          
  Command line options: /opt/synopsys/hspice/hspice/T-2022.06-3/hspice/linux64/hspice NAND-voltage-sweep.spice
  Start time: Thu Oct  2 19:50:01 2025
 lic:  
 lic: FLEXlm: SDK_12.10 
 lic: USER:   azguro               HOSTNAME: vlsicad.ecs.umass.edu 
 lic: HOSTID: 13ac8554             PID:      703315 
 lic: Using FLEXlm license file: 
 lic: 27020@vlsicad.ecs.umass.edu 
 lic: Checkout 1 hspice 
 lic: License/Maintenance for hspice will expire on 09-sep-2027/2025.06 
 lic: 1(in_use)/50(total) FLOATING license(s) on SERVER 27020@vlsicad.ecs.umass.edu 
 lic:   
  **warning** (NAND_X1-post-layout.sp:31) Parameter fw is ignored
  **warning** (NAND_X1-post-layout.sp:22) Global net name "gnd" in subckt pin list. The pin will be connected to the local net. Recommend to not use global net names in subckt pin lists.
  **warning** multiple output options specified, using post
1****** PrimeSim HSPICE -- T-2022.06-3 linux64 (Aug 04 2022 7739753) ******
 ******  
 ** post-layout supply voltage characterization

 ****** circuit name directory
 circuit number to circuit name directory
   number circuitname                     definition         multiplier
        0 main circuit
        1 xnand.                          nand_x1            1.00 
 ******  
 ** post-layout supply voltage characterization

 ****** mos   model parameters tnom=  25.000 temp=  25.000 ******
 Model file: /opt/cadence/gpdk045/gpdk045_v_6_0/models/hspice/g45n1svt.inc
 Model line:            3
 Model Name: g45n1svt  
 BSIM4 Model (Level 54)
    MOBMOD = 0
    BINUNIT = 1
    PARAMCHK = 1
    CAPMOD = 2
    DIOMOD = 1
    RDSMOD = 0
    TRNQSMOD = 0
    ACNQSMOD = 0
    RBODYMOD = 1
    RGATEMOD = 1
    PERMOD = 1
    GEOMOD = 1
    RGEOMOD = 0
    FNOIMOD = 1
    TNOIMOD = 0
    IGCMOD = 1
    IGBMOD = 1
    STIMOD = 0
    VERSION =      4 
    TOXREF = 1.14e-09 
    TOXE = 1.14e-09 
    TOXP =  1e-09 
    TOXM = 1.14e-09 
    DTOX = 1.4e-10 
    EPSROX =    3.9 
    CDSC =      0 
    CDSCB =      0 
    CDSCD =      0 
    CIT =      0 
    NFACTOR =    2.1 
    XJ = 1.98e-08 
    VSAT = 1.23e+05 
    A0 =      1 
    AGS =      0 
    A1 =      0 
    A2 =      1 
    AT = 3.3e+04 
    KETA =   0.04 
    NSUB =  6e+16 
    NDEP = 3.4e+18 
    NSD =  2e+20 
    NGATE =  3e+20 
    GAMMA1 =      0 
    GAMMA2 =      0 
    VBX =      0 
    VBM =     -3 
    XT = 1.55e-07 
    K1 =    0.4 
    KT1 =  -0.11 
    KT1L =      0 
    KT2 =  0.022 
    K2 =      0 
    K3 =      0 
    K3B =      0 
    LPE0 =      0 
    LPEB =      0 
    DVTP0 =  1e-10 
    DVTP1 =    0.1 
    W0 = 2.5e-06 
    DVT0 =      1 
    DVT1 =      2 
    DVT2 =      0 
    DVT0W =      0 
    DVT1W =      0 
    DVT2W =      0 
    DROUT =    0.5 
    DSUB =    0.1 
    VTH0 = 0.4106 
    EU =   1.67 
    UA =  6e-10 
    UA1 = 4.31e-09 
    UB = 1.2e-18 
    UB1 = 7.61e-18 
    UC =      0 
    UC1 = -5.6e-11 
    U0 =  0.045 
    UTE =   -1.5 
    VOFF =  -0.13 
    VOFFL =      0 
    MINV =   0.05 
    FPROUT =    0.2 
    PDITS =   0.08 
    PDITSD =   0.23 
    PDITSL = 2.3e+06 
    DELTA =   0.01 
    RDSW =    155 
    RDSWMIN =      0 
    RDWMIN =      0 
    RSWMIN =      0 
    RDW =     80 
    RSW =     80 
    PRWG =      0 
    PRWB =      0 
    PRT =      0 
    ETA0 =  0.006 
    ETAB =      0 
    PCLM =   0.02 
    PDIBLC1 =  0.001 
    PDIBLC2 =  0.001 
    PDIBLCB = -0.005 
    PSCBE1 = 8.14e+08 
    PSCBE2 =  1e-07 
    PVAG =  1e-20 
    WR =      1 
    DWG =      0 
    DWB =      0 
    XW =      0 
    XWREF =      0 
    XL = -2e-08 
    XLREF = -2e-08 
    B0 =      0 
    B1 =      0 
    ALPHA0 =  0.074 
    ALPHA1 =  0.005 
    AGIDL = 0.0002 
    BGIDL = 2.1e+09 
    CGIDL = 0.0002 
    PHIN =      0 
    EGIDL =    0.8 
    AIGC =   0.02 
    BIGC = 0.0027 
    CIGC =  0.002 
    AIGSD =   0.02 
    BIGSD = 0.0027 
    CIGSD =  0.002 
    AIGBACC =  0.012 
    BIGBACC = 0.0028 
    CIGBACC =  0.002 
    AIGBINV =  0.014 
    BIGBINV =  0.004 
    CIGBINV =  0.004 
    NIGC =      1 
    NIGBINV =      3 
    NIGBACC =      1 
    NTOX =      1 
    EIGBINV =    1.1 
    PIGCD =      1 
    POXEDGE =      1 
    XRCRG1 =     12 
    TNOIA =    1.5 
    TNOIB =    3.5 
    NTNOI =      1 
    XRCRG2 =      5 
    BETA0 =     30 
    IJTHDFWD =   0.01 
    IJTHSFWD =   0.01 
    IJTHDREV =  0.001 
    IJTHSREV =  0.001 
    XJBVD =      1 
    XJBVS =      1 
    BVD =     10 
    BVS =     10 
    VFB =  -0.55 
    GBMIN =  1e-10 
    RBDB =     15 
    RBPB =      5 
    RBSB =     15 
    RBPS =     15 
    RBPD =     15 
    CGSL = 2.653e-10 
    CGDL = 2.653e-10 
    CKAPPAS =   0.03 
    CKAPPAD =   0.03 
    CF = 1.289e-10 
    CLC =  1e-07 
    CLE =    0.6 
    DWC =  5e-09 
    DLC = 3.75e-09 
    DLCIG = 3.75e-09 
    DWJ =      0 
    VFBCV =     -1 
    ACDE =      1 
    MOIN =     15 
    NOFF =    0.9 
    VOFFCV =   0.02 
    DMCG =      0 
    DMCI =      0 
    DMDG =      0 
    DMCGT =      0 
    XGW =      0 
    XGL =      0 
    RSHG =    0.4 
    NGCON =      1 
    TCJ =  0.001 
    TPB =  0.005 
    TCJSW =  0.001 
    TPBSW =  0.005 
    TCJSWG =  0.001 
    TPBSWG =  0.005 
    SK0 =      0 
    SK1 =      0 
    SK2 =      0 
    SL =  2e-06 
    SW =  2e-06 
    K =      0 
    TNOM =  300.1 
    CGSO = 1.1e-10 
    CGDO = 1.1e-10 
    CGBO = 2.56e-11 
    XPART =      0 
    RSH =      5 
    JSS = 0.0001 
    JSWS =  1e-11 
    JSWGS =  1e-10 
    PBS =      1 
    MJS =    0.5 
    PBSWS =      1 
    MJSWS =   0.33 
    CJS = 0.0005 
    CJSWS =  5e-10 
    NJS =      1 
    PBSWGS =      1 
    MJSWGS =   0.33 
    CJSWGS =  3e-10 
    XTIS =      3 
    JSD = 0.0001 
    JSWD =  1e-11 
    JSWGD =  1e-10 
    PBD =      1 
    MJD =    0.5 
    PBSWD =      1 
    MJSWD =   0.33 
    CJD = 0.0005 
    CJSWD =  5e-10 
    NJD =      1 
    PBSWGD =      1 
    MJSWGD =   0.33 
    CJSWGD =  5e-10 
    XTID =      3 
    LMLT =      1 
    WMLT =      1 
    LINT = 3.75e-09 
    LL =      0 
    LLC =      0 
    LLN =      1 
    LW =      0 
    LWC =      0 
    LWN =      1 
    LWL =      0 
    LWLC =      0 
    LMIN =      0 
    LMAX =      1 
    WINT =  5e-09 
    WL =      0 
    WLC =      0 
    WLN =      1 
    WW =      0 
    WWC =      0 
    WWN =      1 
    WWL =      0 
    WWLC =      0 
    WMIN =      0 
    WMAX =      1 
    NOIA = 6.25e+41 
    NOIB = 3.125e+26 
    NOIC = 8.75e+09 
    EM = 4.1e+07 
    EF =      1 
    AF =      1 
    KF =      0 
    TRS =      0 
    TRD =      0 
 Model file: /opt/cadence/gpdk045/gpdk045_v_6_0/models/hspice/g45p1svt.inc
 Model line:            3
 Model Name: g45p1svt  
 BSIM4 Model (Level 54)
    MOBMOD = 0
    BINUNIT = 1
    PARAMCHK = 1
    CAPMOD = 2
    DIOMOD = 1
    RDSMOD = 0
    TRNQSMOD = 0
    ACNQSMOD = 0
    RBODYMOD = 1
    RGATEMOD = 1
    PERMOD = 1
    GEOMOD = 1
    RGEOMOD = 0
    FNOIMOD = 1
    TNOIMOD = 0
    IGCMOD = 1
    IGBMOD = 1
    STIMOD = 0
    VERSION =      4 
    TOXREF = 1.3e-09 
    TOXE = 1.26e-09 
    TOXP =  1e-09 
    TOXM = 1.26e-09 
    DTOX = 2.6e-10 
    EPSROX =    3.9 
    CDSC =      0 
    CDSCB =      0 
    CDSCD =      0 
    CIT =      0 
    NFACTOR =   2.22 
    XJ = 1.98e-08 
    VSAT = 6.2e+04 
    A0 =      1 
    AGS =  1e-20 
    A1 =      0 
    A2 =      1 
    AT = 3.3e+04 
    KETA = -0.047 
    NSUB =  6e+16 
    NDEP = 2.44e+18 
    NSD =  2e+20 
    NGATE =  2e+20 
    GAMMA1 =      0 
    GAMMA2 =      0 
    VBX =      0 
    VBM =     -3 
    XT = 1.55e-07 
    K1 =    0.4 
    KT1 =  -0.11 
    KT1L =      0 
    KT2 =  0.022 
    K2 =  -0.01 
    K3 =      0 
    K3B =      0 
    LPE0 =      0 
    LPEB =      0 
    DVTP0 =  1e-11 
    DVTP1 =   0.05 
    W0 = 2.5e-06 
    DVT0 =      1 
    DVT1 =      2 
    DVT2 = -0.032 
    DVT0W =      0 
    DVT1W =      0 
    DVT2W =      0 
    DROUT =   0.56 
    DSUB =    0.1 
    VTH0 = -0.3842 
    EU =      1 
    UA =  2e-09 
    UA1 = 4.31e-09 
    UB =  5e-19 
    UB1 = 7.61e-18 
    UC =      0 
    UC1 = -5.6e-11 
    U0 =   0.02 
    UTE =   -1.5 
    VOFF = -0.126 
    VOFFL =      0 
    MINV =   0.05 
    FPROUT =    0.2 
    PDITS =   0.08 
    PDITSD =   0.23 
    PDITSL = 2.3e+06 
    DELTA =   0.01 
    RDSW =    155 
    RDSWMIN =      0 
    RDWMIN =      0 
    RSWMIN =      0 
    RDW =     75 
    RSW =     75 
    PRWG =      0 
    PRWB =      0 
    PRT =      0 
    ETA0 = 0.0055 
    ETAB =      0 
    PCLM =   0.12 
    PDIBLC1 =  0.001 
    PDIBLC2 =  0.001 
    PDIBLCB = 3.4e-08 
    PSCBE1 = 8.14e+08 
    PSCBE2 = 9.58e-07 
    PVAG =  1e-20 
    WR =      1 
    DWG =      0 
    DWB =      0 
    XW =      0 
    XWREF =      0 
    XL = -2e-08 
    XLREF = -2e-08 
    B0 =      0 
    B1 =      0 
    ALPHA0 =  0.074 
    ALPHA1 =  0.005 
    AGIDL = 0.0002 
    BGIDL = 2.1e+09 
    CGIDL = 0.0002 
    PHIN =      0 
    EGIDL =    0.8 
    AIGC = 0.01069 
    BIGC = 0.001261 
    CIGC = 0.0008 
    AIGSD = 0.01069 
    BIGSD = 0.001261 
    CIGSD = 0.0008 
    AIGBACC =  0.012 
    BIGBACC = 0.0028 
    CIGBACC =  0.002 
    AIGBINV =  0.014 
    BIGBINV =  0.004 
    CIGBINV =  0.004 
    NIGC =      1 
    NIGBINV =      3 
    NIGBACC =      1 
    NTOX =      1 
    EIGBINV =    1.1 
    PIGCD =      1 
    POXEDGE =      1 
    XRCRG1 =     12 
    TNOIA =    1.5 
    TNOIB =    3.5 
    NTNOI =      1 
    XRCRG2 =      5 
    BETA0 =     30 
    IJTHDFWD =   0.01 
    IJTHSFWD =   0.01 
    IJTHDREV =  0.001 
    IJTHSREV =  0.001 
    XJBVD =      1 
    XJBVS =      1 
    BVD =     10 
    BVS =     10 
    VFB =   0.55 
    GBMIN =  1e-10 
    RBDB =     15 
    RBPB =      5 
    RBSB =     15 
    RBPS =     15 
    RBPD =     15 
    CGSL = 2.653e-10 
    CGDL = 2.653e-10 
    CKAPPAS =   0.03 
    CKAPPAD =   0.03 
    CF = 1.267e-10 
    CLC =  1e-07 
    CLE =    0.6 
    DWC =  5e-09 
    DLC = 3.75e-09 
    DLCIG = 3.75e-09 
    DWJ =      0 
    VFBCV =     -1 
    ACDE =      1 
    MOIN =     15 
    NOFF =    0.9 
    VOFFCV =   0.02 
    DMCG =      0 
    DMCI =      0 
    DMDG =      0 
    DMCGT =      0 
    XGW =      0 
    XGL =      0 
    RSHG =    0.4 
    NGCON =      1 
    TCJ =  0.001 
    TPB =  0.005 
    TCJSW =  0.001 
    TPBSW =  0.005 
    TCJSWG =  0.001 
    TPBSWG =  0.005 
    SK0 =      0 
    SK1 =      0 
    SK2 =      0 
    SL =  2e-06 
    SW =  2e-06 
    K =      0 
    TNOM =  300.1 
    CGSO = 1.1e-10 
    CGDO = 1.1e-10 
    CGBO = 2.56e-11 
    XPART =      0 
    RSH =      5 
    JSS = 0.0001 
    JSWS =  1e-11 
    JSWGS =  1e-10 
    PBS =      1 
    MJS =    0.5 
    PBSWS =      1 
    MJSWS =   0.33 
    CJS = 0.0005 
    CJSWS =  5e-10 
    NJS =      1 
    PBSWGS =      1 
    MJSWGS =   0.33 
    CJSWGS =  3e-10 
    XTIS =      3 
    JSD = 0.0001 
    JSWD =  1e-11 
    JSWGD =  1e-10 
    PBD =      1 
    MJD =    0.5 
    PBSWD =      1 
    MJSWD =   0.33 
    CJD = 0.0005 
    CJSWD =  5e-10 
    NJD =      1 
    PBSWGD =      1 
    MJSWGD =   0.33 
    CJSWGD =  5e-10 
    XTID =      3 
    LMLT =      1 
    WMLT =      1 
    LINT = 3.75e-09 
    LL =      0 
    LLC =      0 
    LLN =      1 
    LW =      0 
    LWC =      0 
    LWN =      1 
    LWL =      0 
    LWLC =      0 
    LMIN =      0 
    LMAX =      1 
    WINT =  5e-09 
    WL =      0 
    WLC =      0 
    WLN =      1 
    WW =      0 
    WWC =      0 
    WWN =      1 
    WWL =      0 
    WWLC =      0 
    WMIN =      0 
    WMAX =      1 
    NOIA = 6.188e+40 
    NOIB = 1.5e+25 
    NOIC = 8.75e+09 
    EM = 4.1e+07 
    EF =      1 
    AF =      1 
    KF =      0 
    TRS =      0 
    TRD =      0 
  **info** (NAND-voltage-sweep.spice:27) DC voltage reset to initial transient source value in source 0:va. new dc=0.0000D+00
  **warning** (NAND-voltage-sweep.spice:22) Both nodes of element vgnd are connected together; Line ignored.
  **warning** (g45n1svt:xnand.mnm0 (NAND_X1-post-layout.sp:31)) Warning:  Acde = 0.276941 may be too small in BSIM4 model with w=2.4e-07 l=4.5e-08.
             
 Summary of Linear Res Distribution Info
 ---------------------------------------
 |Range          |Total     |Percent(%)|
 |---------------+----------+----------|
 |1e-02  ~  1e-01|3         |10.0000   |
 |1e-01  ~  1e+00|9         |30.0000   |
 |1e+00  ~  1e+03|18        |60.0000   |
 ---------------------------------------
              
             
 Summary of Linear Cap Distribution Info
 ---------------------------------------
 |Range          |Total     |Percent(%)|
 |---------------+----------+----------|
 |1e-19  ~  1e-18|17        |15.8879   |
 |1e-18  ~  1e-17|48        |44.8598   |
 |1e-17  ~  1e-16|41        |38.3178   |
 |1e-15  ~  1e-14|1         |0.9346    |
 ---------------------------------------
              
             
 Summary of Detailed RC Type Statistics
 -------------------------
 |Element Type|Number    |
 |------------+----------|
 |Constant Res|30        |
 |            |          |
 |Constant Cap|107       |
 -------------------------
              
  
      
 **info** set option symb=1 internally to help for convergence.
 *****************************************************************
 ******  option summary
 ******
 runlvl  = 3         bypass  = 2.0000    
  Opening plot unit= 15
 file=NAND-voltage-sweep.pa0

 **info** dc convergence successful at Newton-Raphson method 
 ******  
 ** post-layout supply voltage characterization

 ****** operating point information tnom=  25.000 temp=  25.000 ******
 ****** operating point status is voltage   simulation time is   0.000e+00
    node    =voltage      node    =voltage      node    =voltage

 +0:a       = 0.000e+00 0:b       = 1.100e+00 0:vdd     = 1.100e+00
 +0:y       = 1.100e+00 1:a#1     = 8.612e-07 1:a#2     = 8.643e-08
 +1:a#3     = 1.039e-07 1:b#1     = 1.100e+00 1:b#2     = 1.100e+00
 +1:b#3     = 1.100e+00 1:gnd#1   = 7.136e-07 1:gnd#2   = 2.131e-08
 +1:gnd#3   = 3.017e-09 1:gnd#4   = 1.029e-09 1:gnd#5   = 1.029e-09
 +1:net13   = 1.857e-05 1:net13#2 = 1.924e-05 1:net13#4 = 1.990e-05
 +1:net13#5 = 1.924e-05 1:vdd#1   = 1.100e+00 1:vdd#2   = 1.100e+00
 +1:vdd#3   = 1.100e+00 1:vdd#4   = 1.100e+00 1:vdd#5   = 1.100e+00
 +1:vdd#6   = 1.100e+00 1:vdd#7   = 1.100e+00 1:vdd#8   = 1.100e+00
 +1:y#1     = 1.100e+00 1:y#10    = 1.100e+00 1:y#2     = 1.100e+00
 +1:y#3     = 1.100e+00 1:y#4     = 1.100e+00 1:y#6     = 1.100e+00
 +1:y#7     = 1.100e+00 1:y#9     = 1.100e+00

 ******
 ** post-layout supply voltage characterization

 ****** transient analysis tnom=  25.000 temp=  25.000 ******
x

 time         voltage    voltage    voltage    current   
             a          b          y          vsupply    
  0.0000e+00  0.000e+00  1.100e+00  1.100e+00 -1.954e-08 
  1.0000e-12  0.000e+00  1.100e+00  1.100e+00 -1.954e-08 
  2.0000e-12  0.000e+00  1.100e+00  1.100e+00 -1.954e-08 
  3.0000e-12  0.000e+00  1.100e+00  1.100e+00 -1.954e-08 
  4.0000e-12  0.000e+00  1.100e+00  1.100e+00 -1.954e-08 
  5.0000e-12  0.000e+00  1.100e+00  1.100e+00 -1.954e-08 
  6.0000e-12  0.000e+00  1.100e+00  1.100e+00 -1.954e-08 
  7.0000e-12  0.000e+00  1.100e+00  1.100e+00 -1.954e-08 
  8.0000e-12  0.000e+00  1.100e+00  1.100e+00 -1.954e-08 
  9.0000e-12  0.000e+00  1.100e+00  1.100e+00 -1.954e-08 
  1.0000e-11  0.000e+00  1.100e+00  1.100e+00 -1.954e-08 
  1.1000e-11  0.000e+00  1.100e+00  1.100e+00 -1.954e-08 
  1.2000e-11  0.000e+00  1.100e+00  1.100e+00 -1.954e-08 
  1.3000e-11  0.000e+00  1.100e+00  1.100e+00 -1.954e-08 
  1.4000e-11  0.000e+00  1.100e+00  1.100e+00 -1.954e-08 
  1.5000e-11  0.000e+00  1.100e+00  1.100e+00 -1.954e-08 
  1.6000e-11  0.000e+00  1.100e+00  1.100e+00 -1.954e-08 
  1.7000e-11  0.000e+00  1.100e+00  1.100e+00 -1.954e-08 
  1.8000e-11  0.000e+00  1.100e+00  1.100e+00 -1.954e-08 
  1.9000e-11  0.000e+00  1.100e+00  1.100e+00 -1.954e-08 
  2.0000e-11  0.000e+00  1.100e+00  1.100e+00 -1.954e-08 
  2.1000e-11  0.000e+00  1.100e+00  1.100e+00 -1.954e-08 
  2.2000e-11  0.000e+00  1.100e+00  1.100e+00 -1.954e-08 
  2.3000e-11  0.000e+00  1.100e+00  1.100e+00 -1.954e-08 
  2.4000e-11  0.000e+00  1.100e+00  1.100e+00 -1.954e-08 
  2.5000e-11  0.000e+00  1.100e+00  1.100e+00 -1.954e-08 
  2.6000e-11  0.000e+00  1.100e+00  1.100e+00 -1.954e-08 
  2.7000e-11  0.000e+00  1.100e+00  1.100e+00 -1.954e-08 
  2.8000e-11  0.000e+00  1.100e+00  1.100e+00 -1.954e-08 
  2.9000e-11  0.000e+00  1.100e+00  1.100e+00 -1.954e-08 
  3.0000e-11  0.000e+00  1.100e+00  1.100e+00 -1.954e-08 
  3.1000e-11  0.000e+00  1.100e+00  1.100e+00 -1.954e-08 
  3.2000e-11  0.000e+00  1.100e+00  1.100e+00 -1.954e-08 
  3.3000e-11  0.000e+00  1.100e+00  1.100e+00 -1.954e-08 
  3.4000e-11  0.000e+00  1.100e+00  1.100e+00 -1.954e-08 
  3.5000e-11  0.000e+00  1.100e+00  1.100e+00 -1.954e-08 
  3.6000e-11  0.000e+00  1.100e+00  1.100e+00 -1.954e-08 
  3.7000e-11  0.000e+00  1.100e+00  1.100e+00 -1.954e-08 
  3.8000e-11  0.000e+00  1.100e+00  1.100e+00 -1.954e-08 
  3.9000e-11  0.000e+00  1.100e+00  1.100e+00 -1.954e-08 
  4.0000e-11  0.000e+00  1.100e+00  1.100e+00 -1.954e-08 
  4.1000e-11  0.000e+00  1.100e+00  1.100e+00 -1.954e-08 
  4.2000e-11  0.000e+00  1.100e+00  1.100e+00 -1.954e-08 
  4.3000e-11  0.000e+00  1.100e+00  1.100e+00 -1.954e-08 
  4.4000e-11  0.000e+00  1.100e+00  1.100e+00 -1.954e-08 
  4.5000e-11  0.000e+00  1.100e+00  1.100e+00 -1.954e-08 
  4.6000e-11  0.000e+00  1.100e+00  1.100e+00 -1.954e-08 
  4.7000e-11  0.000e+00  1.100e+00  1.100e+00 -1.954e-08 
  4.8000e-11  0.000e+00  1.100e+00  1.100e+00 -1.954e-08 
  4.9000e-11  0.000e+00  1.100e+00  1.100e+00 -1.954e-08 
  5.0000e-11  0.000e+00  1.100e+00  1.100e+00 -1.954e-08 
  5.1000e-11  0.000e+00  1.100e+00  1.100e+00 -1.954e-08 
  5.2000e-11  0.000e+00  1.100e+00  1.100e+00 -1.954e-08 
  5.3000e-11  0.000e+00  1.100e+00  1.100e+00 -1.954e-08 
  5.4000e-11  0.000e+00  1.100e+00  1.100e+00 -1.954e-08 
  5.5000e-11  0.000e+00  1.100e+00  1.100e+00 -1.954e-08 
  5.6000e-11  0.000e+00  1.100e+00  1.100e+00 -1.954e-08 
  5.7000e-11  0.000e+00  1.100e+00  1.100e+00 -1.954e-08 
  5.8000e-11  0.000e+00  1.100e+00  1.100e+00 -1.954e-08 
  5.9000e-11  0.000e+00  1.100e+00  1.100e+00 -1.954e-08 
  6.0000e-11  0.000e+00  1.100e+00  1.100e+00 -1.954e-08 
  6.1000e-11  0.000e+00  1.100e+00  1.100e+00 -1.954e-08 
  6.2000e-11  0.000e+00  1.100e+00  1.100e+00 -1.954e-08 
  6.3000e-11  0.000e+00  1.100e+00  1.100e+00 -1.954e-08 
  6.4000e-11  0.000e+00  1.100e+00  1.100e+00 -1.954e-08 
  6.5000e-11  0.000e+00  1.100e+00  1.100e+00 -1.954e-08 
  6.6000e-11  0.000e+00  1.100e+00  1.100e+00 -1.954e-08 
  6.7000e-11  0.000e+00  1.100e+00  1.100e+00 -1.954e-08 
  6.8000e-11  0.000e+00  1.100e+00  1.100e+00 -1.954e-08 
  6.9000e-11  0.000e+00  1.100e+00  1.100e+00 -1.954e-08 
  7.0000e-11  0.000e+00  1.100e+00  1.100e+00 -1.954e-08 
  7.1000e-11  0.000e+00  1.100e+00  1.100e+00 -1.954e-08 
  7.2000e-11  0.000e+00  1.100e+00  1.100e+00 -1.954e-08 
  7.3000e-11  0.000e+00  1.100e+00  1.100e+00 -1.954e-08 
  7.4000e-11  0.000e+00  1.100e+00  1.100e+00 -1.954e-08 
  7.5000e-11  0.000e+00  1.100e+00  1.100e+00 -1.954e-08 
  7.6000e-11  0.000e+00  1.100e+00  1.100e+00 -1.954e-08 
  7.7000e-11  0.000e+00  1.100e+00  1.100e+00 -1.954e-08 
  7.8000e-11  0.000e+00  1.100e+00  1.100e+00 -1.954e-08 
  7.9000e-11  0.000e+00  1.100e+00  1.100e+00 -1.954e-08 
  8.0000e-11  0.000e+00  1.100e+00  1.100e+00 -1.954e-08 
  8.1000e-11  0.000e+00  1.100e+00  1.100e+00 -1.954e-08 
  8.2000e-11  0.000e+00  1.100e+00  1.100e+00 -1.954e-08 
  8.3000e-11  0.000e+00  1.100e+00  1.100e+00 -1.954e-08 
  8.4000e-11  0.000e+00  1.100e+00  1.100e+00 -1.954e-08 
  8.5000e-11  0.000e+00  1.100e+00  1.100e+00 -1.954e-08 
  8.6000e-11  0.000e+00  1.100e+00  1.100e+00 -1.954e-08 
  8.7000e-11  0.000e+00  1.100e+00  1.100e+00 -1.954e-08 
  8.8000e-11  0.000e+00  1.100e+00  1.100e+00 -1.954e-08 
  8.9000e-11  0.000e+00  1.100e+00  1.100e+00 -1.954e-08 
  9.0000e-11  0.000e+00  1.100e+00  1.100e+00 -1.954e-08 
  9.1000e-11  0.000e+00  1.100e+00  1.100e+00 -1.954e-08 
  9.2000e-11  0.000e+00  1.100e+00  1.100e+00 -1.954e-08 
  9.3000e-11  0.000e+00  1.100e+00  1.100e+00 -1.954e-08 
  9.4000e-11  0.000e+00  1.100e+00  1.100e+00 -1.954e-08 
  9.5000e-11  0.000e+00  1.100e+00  1.100e+00 -1.954e-08 
  9.6000e-11  0.000e+00  1.100e+00  1.100e+00 -1.954e-08 
  9.7000e-11  0.000e+00  1.100e+00  1.100e+00 -1.954e-08 
  9.8000e-11  0.000e+00  1.100e+00  1.100e+00 -1.954e-08 
  9.9000e-11  0.000e+00  1.100e+00  1.100e+00 -1.954e-08 
  1.0000e-10  0.000e+00  1.100e+00  1.100e+00 -1.954e-08 
  1.0100e-10  0.000e+00  1.100e+00  1.100e+00 -1.954e-08 
  1.0200e-10  0.000e+00  1.100e+00  1.100e+00 -1.954e-08 
  1.0300e-10  0.000e+00  1.100e+00  1.100e+00 -1.954e-08 
  1.0400e-10  0.000e+00  1.100e+00  1.100e+00 -1.954e-08 
  1.0500e-10  0.000e+00  1.100e+00  1.100e+00 -1.954e-08 
  1.0600e-10  0.000e+00  1.100e+00  1.100e+00 -1.954e-08 
  1.0700e-10  0.000e+00  1.100e+00  1.100e+00 -1.954e-08 
  1.0800e-10  0.000e+00  1.100e+00  1.100e+00 -1.954e-08 
  1.0900e-10  0.000e+00  1.100e+00  1.100e+00 -1.954e-08 
  1.1000e-10  0.000e+00  1.100e+00  1.100e+00 -1.954e-08 
  1.1100e-10  0.000e+00  1.100e+00  1.100e+00 -1.954e-08 
  1.1200e-10  0.000e+00  1.100e+00  1.100e+00 -1.954e-08 
  1.1300e-10  0.000e+00  1.100e+00  1.100e+00 -1.954e-08 
  1.1400e-10  0.000e+00  1.100e+00  1.100e+00 -1.954e-08 
  1.1500e-10  0.000e+00  1.100e+00  1.100e+00 -1.954e-08 
  1.1600e-10  0.000e+00  1.100e+00  1.100e+00 -1.954e-08 
  1.1700e-10  0.000e+00  1.100e+00  1.100e+00 -1.954e-08 
  1.1800e-10  0.000e+00  1.100e+00  1.100e+00 -1.954e-08 
  1.1900e-10  0.000e+00  1.100e+00  1.100e+00 -1.954e-08 
  1.2000e-10  0.000e+00  1.100e+00  1.100e+00 -1.954e-08 
  1.2100e-10  0.000e+00  1.100e+00  1.100e+00 -1.954e-08 
  1.2200e-10  0.000e+00  1.100e+00  1.100e+00 -1.954e-08 
  1.2300e-10  0.000e+00  1.100e+00  1.100e+00 -1.954e-08 
  1.2400e-10  0.000e+00  1.100e+00  1.100e+00 -1.954e-08 
  1.2500e-10  0.000e+00  1.100e+00  1.100e+00 -1.954e-08 
  1.2600e-10  0.000e+00  1.100e+00  1.100e+00 -1.954e-08 
  1.2700e-10  0.000e+00  1.100e+00  1.100e+00 -1.954e-08 
  1.2800e-10  0.000e+00  1.100e+00  1.100e+00 -1.954e-08 
  1.2900e-10  0.000e+00  1.100e+00  1.100e+00 -1.954e-08 
  1.3000e-10  0.000e+00  1.100e+00  1.100e+00 -1.954e-08 
  1.3100e-10  0.000e+00  1.100e+00  1.100e+00 -1.954e-08 
  1.3200e-10  0.000e+00  1.100e+00  1.100e+00 -1.954e-08 
  1.3300e-10  0.000e+00  1.100e+00  1.100e+00 -1.954e-08 
  1.3400e-10  0.000e+00  1.100e+00  1.100e+00 -1.954e-08 
  1.3500e-10  0.000e+00  1.100e+00  1.100e+00 -1.954e-08 
  1.3600e-10  0.000e+00  1.100e+00  1.100e+00 -1.954e-08 
  1.3700e-10  0.000e+00  1.100e+00  1.100e+00 -1.954e-08 
  1.3800e-10  0.000e+00  1.100e+00  1.100e+00 -1.954e-08 
  1.3900e-10  0.000e+00  1.100e+00  1.100e+00 -1.954e-08 
  1.4000e-10  0.000e+00  1.100e+00  1.100e+00 -1.954e-08 
  1.4100e-10  0.000e+00  1.100e+00  1.100e+00 -1.954e-08 
  1.4200e-10  0.000e+00  1.100e+00  1.100e+00 -1.954e-08 
  1.4300e-10  0.000e+00  1.100e+00  1.100e+00 -1.954e-08 
  1.4400e-10  0.000e+00  1.100e+00  1.100e+00 -1.954e-08 
  1.4500e-10  0.000e+00  1.100e+00  1.100e+00 -1.954e-08 
  1.4600e-10  0.000e+00  1.100e+00  1.100e+00 -1.954e-08 
  1.4700e-10  0.000e+00  1.100e+00  1.100e+00 -1.954e-08 
  1.4800e-10  0.000e+00  1.100e+00  1.100e+00 -1.954e-08 
  1.4900e-10  0.000e+00  1.100e+00  1.100e+00 -1.954e-08 
  1.5000e-10  0.000e+00  1.100e+00  1.100e+00 -1.954e-08 
  1.5100e-10  0.000e+00  1.100e+00  1.100e+00 -1.954e-08 
  1.5200e-10  0.000e+00  1.100e+00  1.100e+00 -1.954e-08 
  1.5300e-10  0.000e+00  1.100e+00  1.100e+00 -1.954e-08 
  1.5400e-10  0.000e+00  1.100e+00  1.100e+00 -1.954e-08 
  1.5500e-10  0.000e+00  1.100e+00  1.100e+00 -1.954e-08 
  1.5600e-10  0.000e+00  1.100e+00  1.100e+00 -1.954e-08 
  1.5700e-10  0.000e+00  1.100e+00  1.100e+00 -1.954e-08 
  1.5800e-10  0.000e+00  1.100e+00  1.100e+00 -1.954e-08 
  1.5900e-10  0.000e+00  1.100e+00  1.100e+00 -1.954e-08 
  1.6000e-10  0.000e+00  1.100e+00  1.100e+00 -1.954e-08 
  1.6100e-10  0.000e+00  1.100e+00  1.100e+00 -1.954e-08 
  1.6200e-10  0.000e+00  1.100e+00  1.100e+00 -1.954e-08 
  1.6300e-10  0.000e+00  1.100e+00  1.100e+00 -1.954e-08 
  1.6400e-10  0.000e+00  1.100e+00  1.100e+00 -1.954e-08 
  1.6500e-10  0.000e+00  1.100e+00  1.100e+00 -1.954e-08 
  1.6600e-10  0.000e+00  1.100e+00  1.100e+00 -1.954e-08 
  1.6700e-10  0.000e+00  1.100e+00  1.100e+00 -1.954e-08 
  1.6800e-10  0.000e+00  1.100e+00  1.100e+00 -1.954e-08 
  1.6900e-10  0.000e+00  1.100e+00  1.100e+00 -1.954e-08 
  1.7000e-10  0.000e+00  1.100e+00  1.100e+00 -1.954e-08 
  1.7100e-10  0.000e+00  1.100e+00  1.100e+00 -1.954e-08 
  1.7200e-10  0.000e+00  1.100e+00  1.100e+00 -1.954e-08 
  1.7300e-10  0.000e+00  1.100e+00  1.100e+00 -1.954e-08 
  1.7400e-10  0.000e+00  1.100e+00  1.100e+00 -1.954e-08 
  1.7500e-10  0.000e+00  1.100e+00  1.100e+00 -1.954e-08 
  1.7600e-10  0.000e+00  1.100e+00  1.100e+00 -1.954e-08 
  1.7700e-10  0.000e+00  1.100e+00  1.100e+00 -1.954e-08 
  1.7800e-10  0.000e+00  1.100e+00  1.100e+00 -1.954e-08 
  1.7900e-10  0.000e+00  1.100e+00  1.100e+00 -1.954e-08 
  1.8000e-10  0.000e+00  1.100e+00  1.100e+00 -1.954e-08 
  1.8100e-10  0.000e+00  1.100e+00  1.100e+00 -1.954e-08 
  1.8200e-10  0.000e+00  1.100e+00  1.100e+00 -1.954e-08 
  1.8300e-10  0.000e+00  1.100e+00  1.100e+00 -1.954e-08 
  1.8400e-10  0.000e+00  1.100e+00  1.100e+00 -1.954e-08 
  1.8500e-10  0.000e+00  1.100e+00  1.100e+00 -1.954e-08 
  1.8600e-10  0.000e+00  1.100e+00  1.100e+00 -1.954e-08 
  1.8700e-10  0.000e+00  1.100e+00  1.100e+00 -1.954e-08 
  1.8800e-10  0.000e+00  1.100e+00  1.100e+00 -1.954e-08 
  1.8900e-10  0.000e+00  1.100e+00  1.100e+00 -1.954e-08 
  1.9000e-10  0.000e+00  1.100e+00  1.100e+00 -1.954e-08 
  1.9100e-10  0.000e+00  1.100e+00  1.100e+00 -1.954e-08 
  1.9200e-10  0.000e+00  1.100e+00  1.100e+00 -1.954e-08 
  1.9300e-10  0.000e+00  1.100e+00  1.100e+00 -1.954e-08 
  1.9400e-10  0.000e+00  1.100e+00  1.100e+00 -1.954e-08 
  1.9500e-10  0.000e+00  1.100e+00  1.100e+00 -1.954e-08 
  1.9600e-10  0.000e+00  1.100e+00  1.100e+00 -1.954e-08 
  1.9700e-10  0.000e+00  1.100e+00  1.100e+00 -1.954e-08 
  1.9800e-10  0.000e+00  1.100e+00  1.100e+00 -1.954e-08 
  1.9900e-10  0.000e+00  1.100e+00  1.100e+00 -1.954e-08 
  2.0000e-10  0.000e+00  1.100e+00  1.100e+00 -1.954e-08 
  2.0100e-10  0.000e+00  1.100e+00  1.100e+00 -1.954e-08 
  2.0200e-10  0.000e+00  1.100e+00  1.100e+00 -1.954e-08 
  2.0300e-10  0.000e+00  1.100e+00  1.100e+00 -1.954e-08 
  2.0400e-10  0.000e+00  1.100e+00  1.100e+00 -1.954e-08 
  2.0500e-10  0.000e+00  1.100e+00  1.100e+00 -1.954e-08 
  2.0600e-10  0.000e+00  1.100e+00  1.100e+00 -1.954e-08 
  2.0700e-10  0.000e+00  1.100e+00  1.100e+00 -1.954e-08 
  2.0800e-10  0.000e+00  1.100e+00  1.100e+00 -1.954e-08 
  2.0900e-10  0.000e+00  1.100e+00  1.100e+00 -1.954e-08 
  2.1000e-10  0.000e+00  1.100e+00  1.100e+00 -1.954e-08 
  2.1100e-10  0.000e+00  1.100e+00  1.100e+00 -1.954e-08 
  2.1200e-10  0.000e+00  1.100e+00  1.100e+00 -1.954e-08 
  2.1300e-10  0.000e+00  1.100e+00  1.100e+00 -1.954e-08 
  2.1400e-10  0.000e+00  1.100e+00  1.100e+00 -1.954e-08 
  2.1500e-10  0.000e+00  1.100e+00  1.100e+00 -1.954e-08 
  2.1600e-10  0.000e+00  1.100e+00  1.100e+00 -1.954e-08 
  2.1700e-10  0.000e+00  1.100e+00  1.100e+00 -1.954e-08 
  2.1800e-10  0.000e+00  1.100e+00  1.100e+00 -1.954e-08 
  2.1900e-10  0.000e+00  1.100e+00  1.100e+00 -1.954e-08 
  2.2000e-10  0.000e+00  1.100e+00  1.100e+00 -1.954e-08 
  2.2100e-10  0.000e+00  1.100e+00  1.100e+00 -1.954e-08 
  2.2200e-10  0.000e+00  1.100e+00  1.100e+00 -1.954e-08 
  2.2300e-10  0.000e+00  1.100e+00  1.100e+00 -1.954e-08 
  2.2400e-10  0.000e+00  1.100e+00  1.100e+00 -1.954e-08 
  2.2500e-10  0.000e+00  1.100e+00  1.100e+00 -1.954e-08 
  2.2600e-10  0.000e+00  1.100e+00  1.100e+00 -1.954e-08 
  2.2700e-10  0.000e+00  1.100e+00  1.100e+00 -1.954e-08 
  2.2800e-10  0.000e+00  1.100e+00  1.100e+00 -1.954e-08 
  2.2900e-10  0.000e+00  1.100e+00  1.100e+00 -1.954e-08 
  2.3000e-10  0.000e+00  1.100e+00  1.100e+00 -1.954e-08 
  2.3100e-10  0.000e+00  1.100e+00  1.100e+00 -1.954e-08 
  2.3200e-10  0.000e+00  1.100e+00  1.100e+00 -1.954e-08 
  2.3300e-10  0.000e+00  1.100e+00  1.100e+00 -1.954e-08 
  2.3400e-10  0.000e+00  1.100e+00  1.100e+00 -1.954e-08 
  2.3500e-10  0.000e+00  1.100e+00  1.100e+00 -1.954e-08 
  2.3600e-10  0.000e+00  1.100e+00  1.100e+00 -1.954e-08 
  2.3700e-10  0.000e+00  1.100e+00  1.100e+00 -1.954e-08 
  2.3800e-10  0.000e+00  1.100e+00  1.100e+00 -1.954e-08 
  2.3900e-10  0.000e+00  1.100e+00  1.100e+00 -1.954e-08 
  2.4000e-10  0.000e+00  1.100e+00  1.100e+00 -1.954e-08 
  2.4100e-10  0.000e+00  1.100e+00  1.100e+00 -1.954e-08 
  2.4200e-10  0.000e+00  1.100e+00  1.100e+00 -1.954e-08 
  2.4300e-10  0.000e+00  1.100e+00  1.100e+00 -1.954e-08 
  2.4400e-10  0.000e+00  1.100e+00  1.100e+00 -1.954e-08 
  2.4500e-10  0.000e+00  1.100e+00  1.100e+00 -1.954e-08 
  2.4600e-10  0.000e+00  1.100e+00  1.100e+00 -1.954e-08 
  2.4700e-10  0.000e+00  1.100e+00  1.100e+00 -1.954e-08 
  2.4800e-10  0.000e+00  1.100e+00  1.100e+00 -1.954e-08 
  2.4900e-10  0.000e+00  1.100e+00  1.100e+00 -1.954e-08 
  2.5000e-10  0.000e+00  1.100e+00  1.100e+00 -1.954e-08 
  2.5100e-10  0.000e+00  1.100e+00  1.100e+00 -1.954e-08 
  2.5200e-10  0.000e+00  1.100e+00  1.100e+00 -1.954e-08 
  2.5300e-10  0.000e+00  1.100e+00  1.100e+00 -1.954e-08 
  2.5400e-10  0.000e+00  1.100e+00  1.100e+00 -1.954e-08 
  2.5500e-10  0.000e+00  1.100e+00  1.100e+00 -1.954e-08 
  2.5600e-10  0.000e+00  1.100e+00  1.100e+00 -1.954e-08 
  2.5700e-10  0.000e+00  1.100e+00  1.100e+00 -1.954e-08 
  2.5800e-10  0.000e+00  1.100e+00  1.100e+00 -1.954e-08 
  2.5900e-10  0.000e+00  1.100e+00  1.100e+00 -1.954e-08 
  2.6000e-10  0.000e+00  1.100e+00  1.100e+00 -1.954e-08 
  2.6100e-10  0.000e+00  1.100e+00  1.100e+00 -1.954e-08 
  2.6200e-10  0.000e+00  1.100e+00  1.100e+00 -1.954e-08 
  2.6300e-10  0.000e+00  1.100e+00  1.100e+00 -1.954e-08 
  2.6400e-10  0.000e+00  1.100e+00  1.100e+00 -1.954e-08 
  2.6500e-10  0.000e+00  1.100e+00  1.100e+00 -1.954e-08 
  2.6600e-10  0.000e+00  1.100e+00  1.100e+00 -1.954e-08 
  2.6700e-10  0.000e+00  1.100e+00  1.100e+00 -1.954e-08 
  2.6800e-10  0.000e+00  1.100e+00  1.100e+00 -1.954e-08 
  2.6900e-10  0.000e+00  1.100e+00  1.100e+00 -1.954e-08 
  2.7000e-10  0.000e+00  1.100e+00  1.100e+00 -1.954e-08 
  2.7100e-10  0.000e+00  1.100e+00  1.100e+00 -1.954e-08 
  2.7200e-10  0.000e+00  1.100e+00  1.100e+00 -1.954e-08 
  2.7300e-10  0.000e+00  1.100e+00  1.100e+00 -1.954e-08 
  2.7400e-10  0.000e+00  1.100e+00  1.100e+00 -1.954e-08 
  2.7500e-10  0.000e+00  1.100e+00  1.100e+00 -1.954e-08 
  2.7600e-10  0.000e+00  1.100e+00  1.100e+00 -1.954e-08 
  2.7700e-10  0.000e+00  1.100e+00  1.100e+00 -1.954e-08 
  2.7800e-10  0.000e+00  1.100e+00  1.100e+00 -1.954e-08 
  2.7900e-10  0.000e+00  1.100e+00  1.100e+00 -1.954e-08 
  2.8000e-10  0.000e+00  1.100e+00  1.100e+00 -1.954e-08 
  2.8100e-10  0.000e+00  1.100e+00  1.100e+00 -1.954e-08 
  2.8200e-10  0.000e+00  1.100e+00  1.100e+00 -1.954e-08 
  2.8300e-10  0.000e+00  1.100e+00  1.100e+00 -1.954e-08 
  2.8400e-10  0.000e+00  1.100e+00  1.100e+00 -1.954e-08 
  2.8500e-10  0.000e+00  1.100e+00  1.100e+00 -1.954e-08 
  2.8600e-10  0.000e+00  1.100e+00  1.100e+00 -1.954e-08 
  2.8700e-10  0.000e+00  1.100e+00  1.100e+00 -1.954e-08 
  2.8800e-10  0.000e+00  1.100e+00  1.100e+00 -1.954e-08 
  2.8900e-10  0.000e+00  1.100e+00  1.100e+00 -1.954e-08 
  2.9000e-10  0.000e+00  1.100e+00  1.100e+00 -1.954e-08 
  2.9100e-10  0.000e+00  1.100e+00  1.100e+00 -1.954e-08 
  2.9200e-10  0.000e+00  1.100e+00  1.100e+00 -1.954e-08 
  2.9300e-10  0.000e+00  1.100e+00  1.100e+00 -1.954e-08 
  2.9400e-10  0.000e+00  1.100e+00  1.100e+00 -1.954e-08 
  2.9500e-10  0.000e+00  1.100e+00  1.100e+00 -1.954e-08 
  2.9600e-10  0.000e+00  1.100e+00  1.100e+00 -1.954e-08 
  2.9700e-10  0.000e+00  1.100e+00  1.100e+00 -1.954e-08 
  2.9800e-10  0.000e+00  1.100e+00  1.100e+00 -1.954e-08 
  2.9900e-10  0.000e+00  1.100e+00  1.100e+00 -1.954e-08 
  3.0000e-10  0.000e+00  1.100e+00  1.100e+00 -1.954e-08 
  3.0100e-10  0.000e+00  1.100e+00  1.100e+00 -1.954e-08 
  3.0200e-10  0.000e+00  1.100e+00  1.100e+00 -1.954e-08 
  3.0300e-10  0.000e+00  1.100e+00  1.100e+00 -1.954e-08 
  3.0400e-10  0.000e+00  1.100e+00  1.100e+00 -1.954e-08 
  3.0500e-10  0.000e+00  1.100e+00  1.100e+00 -1.954e-08 
  3.0600e-10  0.000e+00  1.100e+00  1.100e+00 -1.954e-08 
  3.0700e-10  0.000e+00  1.100e+00  1.100e+00 -1.954e-08 
  3.0800e-10  0.000e+00  1.100e+00  1.100e+00 -1.954e-08 
  3.0900e-10  0.000e+00  1.100e+00  1.100e+00 -1.954e-08 
  3.1000e-10  0.000e+00  1.100e+00  1.100e+00 -1.954e-08 
  3.1100e-10  0.000e+00  1.100e+00  1.100e+00 -1.954e-08 
  3.1200e-10  0.000e+00  1.100e+00  1.100e+00 -1.954e-08 
  3.1300e-10  0.000e+00  1.100e+00  1.100e+00 -1.954e-08 
  3.1400e-10  0.000e+00  1.100e+00  1.100e+00 -1.954e-08 
  3.1500e-10  0.000e+00  1.100e+00  1.100e+00 -1.954e-08 
  3.1600e-10  0.000e+00  1.100e+00  1.100e+00 -1.954e-08 
  3.1700e-10  0.000e+00  1.100e+00  1.100e+00 -1.954e-08 
  3.1800e-10  0.000e+00  1.100e+00  1.100e+00 -1.954e-08 
  3.1900e-10  0.000e+00  1.100e+00  1.100e+00 -1.954e-08 
  3.2000e-10  0.000e+00  1.100e+00  1.100e+00 -1.954e-08 
  3.2100e-10  0.000e+00  1.100e+00  1.100e+00 -1.954e-08 
  3.2200e-10  0.000e+00  1.100e+00  1.100e+00 -1.954e-08 
  3.2300e-10  0.000e+00  1.100e+00  1.100e+00 -1.954e-08 
  3.2400e-10  0.000e+00  1.100e+00  1.100e+00 -1.954e-08 
  3.2500e-10  0.000e+00  1.100e+00  1.100e+00 -1.954e-08 
  3.2600e-10  0.000e+00  1.100e+00  1.100e+00 -1.954e-08 
  3.2700e-10  0.000e+00  1.100e+00  1.100e+00 -1.954e-08 
  3.2800e-10  0.000e+00  1.100e+00  1.100e+00 -1.954e-08 
  3.2900e-10  0.000e+00  1.100e+00  1.100e+00 -1.954e-08 
  3.3000e-10  0.000e+00  1.100e+00  1.100e+00 -1.954e-08 
  3.3100e-10  0.000e+00  1.100e+00  1.100e+00 -1.954e-08 
  3.3200e-10  0.000e+00  1.100e+00  1.100e+00 -1.954e-08 
  3.3300e-10  0.000e+00  1.100e+00  1.100e+00 -1.954e-08 
  3.3400e-10  0.000e+00  1.100e+00  1.100e+00 -1.954e-08 
  3.3500e-10  0.000e+00  1.100e+00  1.100e+00 -1.954e-08 
  3.3600e-10  0.000e+00  1.100e+00  1.100e+00 -1.954e-08 
  3.3700e-10  0.000e+00  1.100e+00  1.100e+00 -1.954e-08 
  3.3800e-10  0.000e+00  1.100e+00  1.100e+00 -1.954e-08 
  3.3900e-10  0.000e+00  1.100e+00  1.100e+00 -1.954e-08 
  3.4000e-10  0.000e+00  1.100e+00  1.100e+00 -1.954e-08 
  3.4100e-10  0.000e+00  1.100e+00  1.100e+00 -1.954e-08 
  3.4200e-10  0.000e+00  1.100e+00  1.100e+00 -1.954e-08 
  3.4300e-10  0.000e+00  1.100e+00  1.100e+00 -1.954e-08 
  3.4400e-10  0.000e+00  1.100e+00  1.100e+00 -1.954e-08 
  3.4500e-10  0.000e+00  1.100e+00  1.100e+00 -1.954e-08 
  3.4600e-10  0.000e+00  1.100e+00  1.100e+00 -1.954e-08 
  3.4700e-10  0.000e+00  1.100e+00  1.100e+00 -1.954e-08 
  3.4800e-10  0.000e+00  1.100e+00  1.100e+00 -1.954e-08 
  3.4900e-10  0.000e+00  1.100e+00  1.100e+00 -1.954e-08 
  3.5000e-10  0.000e+00  1.100e+00  1.100e+00 -1.954e-08 
  3.5100e-10  0.000e+00  1.100e+00  1.100e+00 -1.954e-08 
  3.5200e-10  0.000e+00  1.100e+00  1.100e+00 -1.954e-08 
  3.5300e-10  0.000e+00  1.100e+00  1.100e+00 -1.954e-08 
  3.5400e-10  0.000e+00  1.100e+00  1.100e+00 -1.954e-08 
  3.5500e-10  0.000e+00  1.100e+00  1.100e+00 -1.954e-08 
  3.5600e-10  0.000e+00  1.100e+00  1.100e+00 -1.954e-08 
  3.5700e-10  0.000e+00  1.100e+00  1.100e+00 -1.954e-08 
  3.5800e-10  0.000e+00  1.100e+00  1.100e+00 -1.954e-08 
  3.5900e-10  0.000e+00  1.100e+00  1.100e+00 -1.954e-08 
  3.6000e-10  0.000e+00  1.100e+00  1.100e+00 -1.954e-08 
  3.6100e-10  0.000e+00  1.100e+00  1.100e+00 -1.954e-08 
  3.6200e-10  0.000e+00  1.100e+00  1.100e+00 -1.954e-08 
  3.6300e-10  0.000e+00  1.100e+00  1.100e+00 -1.954e-08 
  3.6400e-10  0.000e+00  1.100e+00  1.100e+00 -1.954e-08 
  3.6500e-10  0.000e+00  1.100e+00  1.100e+00 -1.954e-08 
  3.6600e-10  0.000e+00  1.100e+00  1.100e+00 -1.954e-08 
  3.6700e-10  0.000e+00  1.100e+00  1.100e+00 -1.954e-08 
  3.6800e-10  0.000e+00  1.100e+00  1.100e+00 -1.954e-08 
  3.6900e-10  0.000e+00  1.100e+00  1.100e+00 -1.954e-08 
  3.7000e-10  0.000e+00  1.100e+00  1.100e+00 -1.954e-08 
  3.7100e-10  0.000e+00  1.100e+00  1.100e+00 -1.954e-08 
  3.7200e-10  0.000e+00  1.100e+00  1.100e+00 -1.954e-08 
  3.7300e-10  0.000e+00  1.100e+00  1.100e+00 -1.954e-08 
  3.7400e-10  0.000e+00  1.100e+00  1.100e+00 -1.954e-08 
  3.7500e-10  0.000e+00  1.100e+00  1.100e+00 -1.954e-08 
  3.7600e-10  0.000e+00  1.100e+00  1.100e+00 -1.954e-08 
  3.7700e-10  0.000e+00  1.100e+00  1.100e+00 -1.954e-08 
  3.7800e-10  0.000e+00  1.100e+00  1.100e+00 -1.954e-08 
  3.7900e-10  0.000e+00  1.100e+00  1.100e+00 -1.954e-08 
  3.8000e-10  0.000e+00  1.100e+00  1.100e+00 -1.954e-08 
  3.8100e-10  0.000e+00  1.100e+00  1.100e+00 -1.954e-08 
  3.8200e-10  0.000e+00  1.100e+00  1.100e+00 -1.954e-08 
  3.8300e-10  0.000e+00  1.100e+00  1.100e+00 -1.954e-08 
  3.8400e-10  0.000e+00  1.100e+00  1.100e+00 -1.954e-08 
  3.8500e-10  0.000e+00  1.100e+00  1.100e+00 -1.954e-08 
  3.8600e-10  0.000e+00  1.100e+00  1.100e+00 -1.954e-08 
  3.8700e-10  0.000e+00  1.100e+00  1.100e+00 -1.954e-08 
  3.8800e-10  0.000e+00  1.100e+00  1.100e+00 -1.954e-08 
  3.8900e-10  0.000e+00  1.100e+00  1.100e+00 -1.954e-08 
  3.9000e-10  0.000e+00  1.100e+00  1.100e+00 -1.954e-08 
  3.9100e-10  0.000e+00  1.100e+00  1.100e+00 -1.954e-08 
  3.9200e-10  0.000e+00  1.100e+00  1.100e+00 -1.954e-08 
  3.9300e-10  0.000e+00  1.100e+00  1.100e+00 -1.954e-08 
  3.9400e-10  0.000e+00  1.100e+00  1.100e+00 -1.954e-08 
  3.9500e-10  0.000e+00  1.100e+00  1.100e+00 -1.954e-08 
  3.9600e-10  0.000e+00  1.100e+00  1.100e+00 -1.954e-08 
  3.9700e-10  0.000e+00  1.100e+00  1.100e+00 -1.954e-08 
  3.9800e-10  0.000e+00  1.100e+00  1.100e+00 -1.954e-08 
  3.9900e-10  0.000e+00  1.100e+00  1.100e+00 -1.954e-08 
  4.0000e-10  0.000e+00  1.100e+00  1.100e+00 -1.954e-08 
  4.0100e-10  0.000e+00  1.100e+00  1.100e+00 -1.954e-08 
  4.0200e-10  0.000e+00  1.100e+00  1.100e+00 -1.954e-08 
  4.0300e-10  0.000e+00  1.100e+00  1.100e+00 -1.954e-08 
  4.0400e-10  0.000e+00  1.100e+00  1.100e+00 -1.954e-08 
  4.0500e-10  0.000e+00  1.100e+00  1.100e+00 -1.954e-08 
  4.0600e-10  0.000e+00  1.100e+00  1.100e+00 -1.954e-08 
  4.0700e-10  0.000e+00  1.100e+00  1.100e+00 -1.954e-08 
  4.0800e-10  0.000e+00  1.100e+00  1.100e+00 -1.954e-08 
  4.0900e-10  0.000e+00  1.100e+00  1.100e+00 -1.954e-08 
  4.1000e-10  0.000e+00  1.100e+00  1.100e+00 -1.954e-08 
  4.1100e-10  0.000e+00  1.100e+00  1.100e+00 -1.954e-08 
  4.1200e-10  0.000e+00  1.100e+00  1.100e+00 -1.954e-08 
  4.1300e-10  0.000e+00  1.100e+00  1.100e+00 -1.954e-08 
  4.1400e-10  0.000e+00  1.100e+00  1.100e+00 -1.954e-08 
  4.1500e-10  0.000e+00  1.100e+00  1.100e+00 -1.954e-08 
  4.1600e-10  0.000e+00  1.100e+00  1.100e+00 -1.954e-08 
  4.1700e-10  0.000e+00  1.100e+00  1.100e+00 -1.954e-08 
  4.1800e-10  0.000e+00  1.100e+00  1.100e+00 -1.954e-08 
  4.1900e-10  0.000e+00  1.100e+00  1.100e+00 -1.954e-08 
  4.2000e-10  0.000e+00  1.100e+00  1.100e+00 -1.954e-08 
  4.2100e-10  0.000e+00  1.100e+00  1.100e+00 -1.954e-08 
  4.2200e-10  0.000e+00  1.100e+00  1.100e+00 -1.954e-08 
  4.2300e-10  0.000e+00  1.100e+00  1.100e+00 -1.954e-08 
  4.2400e-10  0.000e+00  1.100e+00  1.100e+00 -1.954e-08 
  4.2500e-10  0.000e+00  1.100e+00  1.100e+00 -1.954e-08 
  4.2600e-10  0.000e+00  1.100e+00  1.100e+00 -1.954e-08 
  4.2700e-10  0.000e+00  1.100e+00  1.100e+00 -1.954e-08 
  4.2800e-10  0.000e+00  1.100e+00  1.100e+00 -1.954e-08 
  4.2900e-10  0.000e+00  1.100e+00  1.100e+00 -1.954e-08 
  4.3000e-10  0.000e+00  1.100e+00  1.100e+00 -1.954e-08 
  4.3100e-10  0.000e+00  1.100e+00  1.100e+00 -1.954e-08 
  4.3200e-10  0.000e+00  1.100e+00  1.100e+00 -1.954e-08 
  4.3300e-10  0.000e+00  1.100e+00  1.100e+00 -1.954e-08 
  4.3400e-10  0.000e+00  1.100e+00  1.100e+00 -1.954e-08 
  4.3500e-10  0.000e+00  1.100e+00  1.100e+00 -1.954e-08 
  4.3600e-10  0.000e+00  1.100e+00  1.100e+00 -1.954e-08 
  4.3700e-10  0.000e+00  1.100e+00  1.100e+00 -1.954e-08 
  4.3800e-10  0.000e+00  1.100e+00  1.100e+00 -1.954e-08 
  4.3900e-10  0.000e+00  1.100e+00  1.100e+00 -1.954e-08 
  4.4000e-10  0.000e+00  1.100e+00  1.100e+00 -1.954e-08 
  4.4100e-10  0.000e+00  1.100e+00  1.100e+00 -1.954e-08 
  4.4200e-10  0.000e+00  1.100e+00  1.100e+00 -1.954e-08 
  4.4300e-10  0.000e+00  1.100e+00  1.100e+00 -1.954e-08 
  4.4400e-10  0.000e+00  1.100e+00  1.100e+00 -1.954e-08 
  4.4500e-10  0.000e+00  1.100e+00  1.100e+00 -1.954e-08 
  4.4600e-10  0.000e+00  1.100e+00  1.100e+00 -1.954e-08 
  4.4700e-10  0.000e+00  1.100e+00  1.100e+00 -1.954e-08 
  4.4800e-10  0.000e+00  1.100e+00  1.100e+00 -1.954e-08 
  4.4900e-10  0.000e+00  1.100e+00  1.100e+00 -1.954e-08 
  4.5000e-10  0.000e+00  1.100e+00  1.100e+00 -1.954e-08 
  4.5100e-10  0.000e+00  1.100e+00  1.100e+00 -1.954e-08 
  4.5200e-10  0.000e+00  1.100e+00  1.100e+00 -1.954e-08 
  4.5300e-10  0.000e+00  1.100e+00  1.100e+00 -1.954e-08 
  4.5400e-10  0.000e+00  1.100e+00  1.100e+00 -1.954e-08 
  4.5500e-10  0.000e+00  1.100e+00  1.100e+00 -1.954e-08 
  4.5600e-10  0.000e+00  1.100e+00  1.100e+00 -1.954e-08 
  4.5700e-10  0.000e+00  1.100e+00  1.100e+00 -1.954e-08 
  4.5800e-10  0.000e+00  1.100e+00  1.100e+00 -1.954e-08 
  4.5900e-10  0.000e+00  1.100e+00  1.100e+00 -1.954e-08 
  4.6000e-10  0.000e+00  1.100e+00  1.100e+00 -1.954e-08 
  4.6100e-10  0.000e+00  1.100e+00  1.100e+00 -1.954e-08 
  4.6200e-10  0.000e+00  1.100e+00  1.100e+00 -1.954e-08 
  4.6300e-10  0.000e+00  1.100e+00  1.100e+00 -1.954e-08 
  4.6400e-10  0.000e+00  1.100e+00  1.100e+00 -1.954e-08 
  4.6500e-10  0.000e+00  1.100e+00  1.100e+00 -1.954e-08 
  4.6600e-10  0.000e+00  1.100e+00  1.100e+00 -1.954e-08 
  4.6700e-10  0.000e+00  1.100e+00  1.100e+00 -1.954e-08 
  4.6800e-10  0.000e+00  1.100e+00  1.100e+00 -1.954e-08 
  4.6900e-10  0.000e+00  1.100e+00  1.100e+00 -1.954e-08 
  4.7000e-10  0.000e+00  1.100e+00  1.100e+00 -1.954e-08 
  4.7100e-10  0.000e+00  1.100e+00  1.100e+00 -1.954e-08 
  4.7200e-10  0.000e+00  1.100e+00  1.100e+00 -1.954e-08 
  4.7300e-10  0.000e+00  1.100e+00  1.100e+00 -1.954e-08 
  4.7400e-10  0.000e+00  1.100e+00  1.100e+00 -1.954e-08 
  4.7500e-10  0.000e+00  1.100e+00  1.100e+00 -1.954e-08 
  4.7600e-10  0.000e+00  1.100e+00  1.100e+00 -1.954e-08 
  4.7700e-10  0.000e+00  1.100e+00  1.100e+00 -1.954e-08 
  4.7800e-10  0.000e+00  1.100e+00  1.100e+00 -1.954e-08 
  4.7900e-10  0.000e+00  1.100e+00  1.100e+00 -1.954e-08 
  4.8000e-10  0.000e+00  1.100e+00  1.100e+00 -1.954e-08 
  4.8100e-10  0.000e+00  1.100e+00  1.100e+00 -1.954e-08 
  4.8200e-10  0.000e+00  1.100e+00  1.100e+00 -1.954e-08 
  4.8300e-10  0.000e+00  1.100e+00  1.100e+00 -1.954e-08 
  4.8400e-10  0.000e+00  1.100e+00  1.100e+00 -1.954e-08 
  4.8500e-10  0.000e+00  1.100e+00  1.100e+00 -1.954e-08 
  4.8600e-10  0.000e+00  1.100e+00  1.100e+00 -1.954e-08 
  4.8700e-10  0.000e+00  1.100e+00  1.100e+00 -1.954e-08 
  4.8800e-10  0.000e+00  1.100e+00  1.100e+00 -1.954e-08 
  4.8900e-10  0.000e+00  1.100e+00  1.100e+00 -1.954e-08 
  4.9000e-10  0.000e+00  1.100e+00  1.100e+00 -1.954e-08 
  4.9100e-10  0.000e+00  1.100e+00  1.100e+00 -1.954e-08 
  4.9200e-10  0.000e+00  1.100e+00  1.100e+00 -1.954e-08 
  4.9300e-10  0.000e+00  1.100e+00  1.100e+00 -1.954e-08 
  4.9400e-10  0.000e+00  1.100e+00  1.100e+00 -1.954e-08 
  4.9500e-10  0.000e+00  1.100e+00  1.100e+00 -1.954e-08 
  4.9600e-10  0.000e+00  1.100e+00  1.100e+00 -1.954e-08 
  4.9700e-10  0.000e+00  1.100e+00  1.100e+00 -1.954e-08 
  4.9800e-10  0.000e+00  1.100e+00  1.100e+00 -1.954e-08 
  4.9900e-10  0.000e+00  1.100e+00  1.100e+00 -1.954e-08 
  5.0000e-10  0.000e+00  1.100e+00  1.100e+00 -1.954e-08 
  5.0100e-10  2.200e-02  1.100e+00  1.100e+00  9.265e-07 
  5.0200e-10  4.400e-02  1.100e+00  1.101e+00  1.873e-06 
  5.0300e-10  6.600e-02  1.100e+00  1.101e+00  2.819e-06 
  5.0400e-10  8.800e-02  1.100e+00  1.102e+00  3.765e-06 
  5.0500e-10  1.100e-01  1.100e+00  1.102e+00  4.711e-06 
  5.0600e-10  1.320e-01  1.100e+00  1.103e+00  5.657e-06 
  5.0700e-10  1.540e-01  1.100e+00  1.103e+00  6.603e-06 
  5.0800e-10  1.760e-01  1.100e+00  1.103e+00  7.065e-06 
  5.0900e-10  1.980e-01  1.100e+00  1.104e+00  7.043e-06 
  5.1000e-10  2.200e-01  1.100e+00  1.104e+00  7.021e-06 
  5.1100e-10  2.420e-01  1.100e+00  1.104e+00  6.998e-06 
  5.1200e-10  2.640e-01  1.100e+00  1.102e+00  5.634e-06 
  5.1300e-10  2.860e-01  1.100e+00  1.099e+00  4.195e-06 
  5.1400e-10  3.080e-01  1.100e+00  1.097e+00  2.757e-06 
  5.1500e-10  3.300e-01  1.100e+00  1.094e+00  1.318e-06 
  5.1600e-10  3.520e-01  1.100e+00  1.092e+00 -1.205e-07 
  5.1700e-10  3.740e-01  1.100e+00  1.089e+00 -1.559e-06 
  5.1800e-10  3.960e-01  1.100e+00  1.086e+00 -2.998e-06 
  5.1900e-10  4.180e-01  1.100e+00  1.084e+00 -4.436e-06 
  5.2000e-10  4.400e-01  1.100e+00  1.081e+00 -5.875e-06 
  5.2100e-10  4.620e-01  1.100e+00  1.079e+00 -7.313e-06 
  5.2200e-10  4.840e-01  1.100e+00  1.076e+00 -8.752e-06 
  5.2300e-10  5.060e-01  1.100e+00  1.070e+00 -9.461e-06 
  5.2400e-10  5.280e-01  1.100e+00  1.060e+00 -9.644e-06 
  5.2500e-10  5.500e-01  1.100e+00  1.050e+00 -9.828e-06 
  5.2600e-10  5.720e-01  1.100e+00  1.040e+00 -1.001e-05 
  5.2700e-10  5.940e-01  1.100e+00  1.030e+00 -1.020e-05 
  5.2800e-10  6.160e-01  1.100e+00  1.021e+00 -1.038e-05 
  5.2900e-10  6.380e-01  1.100e+00  1.011e+00 -1.056e-05 
  5.3000e-10  6.600e-01  1.100e+00  1.001e+00 -1.075e-05 
  5.3100e-10  6.820e-01  1.100e+00  9.912e-01 -1.093e-05 
  5.3200e-10  7.040e-01  1.100e+00  9.813e-01 -1.111e-05 
  5.3300e-10  7.260e-01  1.100e+00  9.715e-01 -1.130e-05 
  5.3400e-10  7.480e-01  1.100e+00  9.617e-01 -1.148e-05 
  5.3500e-10  7.700e-01  1.100e+00  9.519e-01 -1.166e-05 
  5.3600e-10  7.920e-01  1.100e+00  9.358e-01 -1.202e-05 
  5.3700e-10  8.140e-01  1.100e+00  9.193e-01 -1.238e-05 
  5.3800e-10  8.360e-01  1.100e+00  9.029e-01 -1.275e-05 
  5.3900e-10  8.580e-01  1.100e+00  8.864e-01 -1.311e-05 
  5.4000e-10  8.800e-01  1.100e+00  8.700e-01 -1.347e-05 
  5.4100e-10  9.020e-01  1.100e+00  8.535e-01 -1.384e-05 
  5.4200e-10  9.240e-01  1.100e+00  8.371e-01 -1.420e-05 
  5.4300e-10  9.460e-01  1.100e+00  8.183e-01 -1.463e-05 
  5.4400e-10  9.680e-01  1.100e+00  7.969e-01 -1.512e-05 
  5.4500e-10  9.900e-01  1.100e+00  7.755e-01 -1.562e-05 
  5.4600e-10  1.012e+00  1.100e+00  7.541e-01 -1.612e-05 
  5.4700e-10  1.034e+00  1.100e+00  7.328e-01 -1.661e-05 
  5.4800e-10  1.056e+00  1.100e+00  7.114e-01 -1.711e-05 
  5.4900e-10  1.078e+00  1.100e+00  6.900e-01 -1.761e-05 
  5.5000e-10  1.100e+00  1.100e+00  6.686e-01 -1.810e-05 
  5.5100e-10  1.100e+00  1.100e+00  6.451e-01 -1.958e-05 
  5.5200e-10  1.100e+00  1.100e+00  6.216e-01 -2.105e-05 
  5.5300e-10  1.100e+00  1.100e+00  5.982e-01 -2.097e-05 
  5.5400e-10  1.100e+00  1.100e+00  5.751e-01 -2.074e-05 
  5.5500e-10  1.100e+00  1.100e+00  5.529e-01 -2.034e-05 
  5.5600e-10  1.100e+00  1.100e+00  5.307e-01 -1.995e-05 
  5.5700e-10  1.100e+00  1.100e+00  5.084e-01 -1.955e-05 
  5.5800e-10  1.100e+00  1.100e+00  4.862e-01 -1.916e-05 
  5.5900e-10  1.100e+00  1.100e+00  4.640e-01 -1.876e-05 
  5.6000e-10  1.100e+00  1.100e+00  4.447e-01 -1.822e-05 
  5.6100e-10  1.100e+00  1.100e+00  4.258e-01 -1.766e-05 
  5.6200e-10  1.100e+00  1.100e+00  4.069e-01 -1.710e-05 
  5.6300e-10  1.100e+00  1.100e+00  3.880e-01 -1.654e-05 
  5.6400e-10  1.100e+00  1.100e+00  3.691e-01 -1.598e-05 
  5.6500e-10  1.100e+00  1.100e+00  3.502e-01 -1.543e-05 
  5.6600e-10  1.100e+00  1.100e+00  3.313e-01 -1.487e-05 
  5.6700e-10  1.100e+00  1.100e+00  3.124e-01 -1.431e-05 
  5.6800e-10  1.100e+00  1.100e+00  2.989e-01 -1.378e-05 
  5.6900e-10  1.100e+00  1.100e+00  2.868e-01 -1.325e-05 
  5.7000e-10  1.100e+00  1.100e+00  2.747e-01 -1.273e-05 
  5.7100e-10  1.100e+00  1.100e+00  2.626e-01 -1.220e-05 
  5.7200e-10  1.100e+00  1.100e+00  2.504e-01 -1.168e-05 
  5.7300e-10  1.100e+00  1.100e+00  2.383e-01 -1.116e-05 
  5.7400e-10  1.100e+00  1.100e+00  2.262e-01 -1.063e-05 
  5.7500e-10  1.100e+00  1.100e+00  2.141e-01 -1.011e-05 
  5.7600e-10  1.100e+00  1.100e+00  2.020e-01 -9.583e-06 
  5.7700e-10  1.100e+00  1.100e+00  1.899e-01 -9.059e-06 
  5.7800e-10  1.100e+00  1.100e+00  1.777e-01 -8.534e-06 
  5.7900e-10  1.100e+00  1.100e+00  1.656e-01 -8.010e-06 
  5.8000e-10  1.100e+00  1.100e+00  1.535e-01 -7.486e-06 
  5.8100e-10  1.100e+00  1.100e+00  1.414e-01 -6.962e-06 
  5.8200e-10  1.100e+00  1.100e+00  1.295e-01 -6.446e-06 
  5.8300e-10  1.100e+00  1.100e+00  1.237e-01 -6.182e-06 
  5.8400e-10  1.100e+00  1.100e+00  1.178e-01 -5.919e-06 
  5.8500e-10  1.100e+00  1.100e+00  1.120e-01 -5.655e-06 
  5.8600e-10  1.100e+00  1.100e+00  1.062e-01 -5.392e-06 
  5.8700e-10  1.100e+00  1.100e+00  1.003e-01 -5.128e-06 
  5.8800e-10  1.100e+00  1.100e+00  9.452e-02 -4.865e-06 
  5.8900e-10  1.100e+00  1.100e+00  8.869e-02 -4.601e-06 
  5.9000e-10  1.100e+00  1.100e+00  8.286e-02 -4.338e-06 
  5.9100e-10  1.100e+00  1.100e+00  7.703e-02 -4.074e-06 
  5.9200e-10  1.100e+00  1.100e+00  7.121e-02 -3.811e-06 
  5.9300e-10  1.100e+00  1.100e+00  6.538e-02 -3.547e-06 
  5.9400e-10  1.100e+00  1.100e+00  6.053e-02 -3.319e-06 
  5.9500e-10  1.100e+00  1.100e+00  5.803e-02 -3.176e-06 
  5.9600e-10  1.100e+00  1.100e+00  5.553e-02 -3.033e-06 
  5.9700e-10  1.100e+00  1.100e+00  5.304e-02 -2.890e-06 
  5.9800e-10  1.100e+00  1.100e+00  5.054e-02 -2.746e-06 
  5.9900e-10  1.100e+00  1.100e+00  4.804e-02 -2.603e-06 
  6.0000e-10  1.100e+00  1.100e+00  4.554e-02 -2.460e-06 
  6.0100e-10  1.100e+00  1.100e+00  4.305e-02 -2.317e-06 
  6.0200e-10  1.100e+00  1.100e+00  4.055e-02 -2.174e-06 
  6.0300e-10  1.100e+00  1.100e+00  3.805e-02 -2.031e-06 
  6.0400e-10  1.100e+00  1.100e+00  3.555e-02 -1.888e-06 
  6.0500e-10  1.100e+00  1.100e+00  3.306e-02 -1.744e-06 
  6.0600e-10  1.100e+00  1.100e+00  3.056e-02 -1.601e-06 
  6.0700e-10  1.100e+00  1.100e+00  2.806e-02 -1.458e-06 
  6.0800e-10  1.100e+00  1.100e+00  2.556e-02 -1.315e-06 
  6.0900e-10  1.100e+00  1.100e+00  2.306e-02 -1.172e-06 
  6.1000e-10  1.100e+00  1.100e+00  2.057e-02 -1.029e-06 
  6.1100e-10  1.100e+00  1.100e+00  1.807e-02 -8.856e-07 
  6.1200e-10  1.100e+00  1.100e+00  1.726e-02 -8.575e-07 
  6.1300e-10  1.100e+00  1.100e+00  1.649e-02 -8.321e-07 
  6.1400e-10  1.100e+00  1.100e+00  1.572e-02 -8.067e-07 
  6.1500e-10  1.100e+00  1.100e+00  1.495e-02 -7.813e-07 
  6.1600e-10  1.100e+00  1.100e+00  1.418e-02 -7.560e-07 
  6.1700e-10  1.100e+00  1.100e+00  1.341e-02 -7.306e-07 
  6.1800e-10  1.100e+00  1.100e+00  1.263e-02 -7.052e-07 
  6.1900e-10  1.100e+00  1.100e+00  1.186e-02 -6.798e-07 
  6.2000e-10  1.100e+00  1.100e+00  1.109e-02 -6.544e-07 
  6.2100e-10  1.100e+00  1.100e+00  1.032e-02 -6.291e-07 
  6.2200e-10  1.100e+00  1.100e+00  9.552e-03 -6.037e-07 
  6.2300e-10  1.100e+00  1.100e+00  8.781e-03 -5.783e-07 
  6.2400e-10  1.100e+00  1.100e+00  8.010e-03 -5.529e-07 
  6.2500e-10  1.100e+00  1.100e+00  7.240e-03 -5.276e-07 
  6.2600e-10  1.100e+00  1.100e+00  6.469e-03 -5.022e-07 
  6.2700e-10  1.100e+00  1.100e+00  6.007e-03 -4.778e-07 
  6.2800e-10  1.100e+00  1.100e+00  5.777e-03 -4.541e-07 
  6.2900e-10  1.100e+00  1.100e+00  5.547e-03 -4.304e-07 
  6.3000e-10  1.100e+00  1.100e+00  5.317e-03 -4.067e-07 
  6.3100e-10  1.100e+00  1.100e+00  5.088e-03 -3.830e-07 
  6.3200e-10  1.100e+00  1.100e+00  4.858e-03 -3.593e-07 
  6.3300e-10  1.100e+00  1.100e+00  4.628e-03 -3.356e-07 
  6.3400e-10  1.100e+00  1.100e+00  4.398e-03 -3.119e-07 
  6.3500e-10  1.100e+00  1.100e+00  4.168e-03 -2.882e-07 
  6.3600e-10  1.100e+00  1.100e+00  3.938e-03 -2.645e-07 
  6.3700e-10  1.100e+00  1.100e+00  3.708e-03 -2.408e-07 
  6.3800e-10  1.100e+00  1.100e+00  3.478e-03 -2.171e-07 
  6.3900e-10  1.100e+00  1.100e+00  3.248e-03 -1.934e-07 
  6.4000e-10  1.100e+00  1.100e+00  3.019e-03 -1.697e-07 
  6.4100e-10  1.100e+00  1.100e+00  2.789e-03 -1.460e-07 
  6.4200e-10  1.100e+00  1.100e+00  2.559e-03 -1.223e-07 
  6.4300e-10  1.100e+00  1.100e+00  2.329e-03 -9.859e-08 
  6.4400e-10  1.100e+00  1.100e+00  2.099e-03 -7.489e-08 
  6.4500e-10  1.100e+00  1.100e+00  1.869e-03 -5.119e-08 
  6.4600e-10  1.100e+00  1.100e+00  1.639e-03 -2.749e-08 
  6.4700e-10  1.100e+00  1.100e+00  1.492e-03 -1.793e-08 
  6.4800e-10  1.100e+00  1.100e+00  1.442e-03 -2.485e-08 
  6.4900e-10  1.100e+00  1.100e+00  1.392e-03 -3.177e-08 
  6.5000e-10  1.100e+00  1.100e+00  1.341e-03 -3.869e-08 
  6.5100e-10  1.100e+00  1.100e+00  1.291e-03 -4.561e-08 
  6.5200e-10  1.100e+00  1.100e+00  1.241e-03 -5.253e-08 
  6.5300e-10  1.100e+00  1.100e+00  1.191e-03 -5.945e-08 
  6.5400e-10  1.100e+00  1.100e+00  1.140e-03 -6.637e-08 
  6.5500e-10  1.100e+00  1.100e+00  1.090e-03 -7.330e-08 
  6.5600e-10  1.100e+00  1.100e+00  1.040e-03 -8.022e-08 
  6.5700e-10  1.100e+00  1.100e+00  9.895e-04 -8.714e-08 
  6.5800e-10  1.100e+00  1.100e+00  9.392e-04 -9.406e-08 
  6.5900e-10  1.100e+00  1.100e+00  8.890e-04 -1.010e-07 
  6.6000e-10  1.100e+00  1.100e+00  8.387e-04 -1.079e-07 
  6.6100e-10  1.100e+00  1.100e+00  7.884e-04 -1.148e-07 
  6.6200e-10  1.100e+00  1.100e+00  7.381e-04 -1.217e-07 
  6.6300e-10  1.100e+00  1.100e+00  6.878e-04 -1.287e-07 
  6.6400e-10  1.100e+00  1.100e+00  6.376e-04 -1.356e-07 
  6.6500e-10  1.100e+00  1.100e+00  5.873e-04 -1.425e-07 
  6.6600e-10  1.100e+00  1.100e+00  5.370e-04 -1.494e-07 
  6.6700e-10  1.100e+00  1.100e+00  4.867e-04 -1.563e-07 
  6.6800e-10  1.100e+00  1.100e+00  4.365e-04 -1.633e-07 
  6.6900e-10  1.100e+00  1.100e+00  3.862e-04 -1.702e-07 
  6.7000e-10  1.100e+00  1.100e+00  3.440e-04 -1.746e-07 
  6.7100e-10  1.100e+00  1.100e+00  3.370e-04 -1.679e-07 
  6.7200e-10  1.100e+00  1.100e+00  3.301e-04 -1.612e-07 
  6.7300e-10  1.100e+00  1.100e+00  3.231e-04 -1.546e-07 
  6.7400e-10  1.100e+00  1.100e+00  3.161e-04 -1.479e-07 
  6.7500e-10  1.100e+00  1.100e+00  3.092e-04 -1.412e-07 
  6.7600e-10  1.100e+00  1.100e+00  3.022e-04 -1.346e-07 
  6.7700e-10  1.100e+00  1.100e+00  2.952e-04 -1.279e-07 
  6.7800e-10  1.100e+00  1.100e+00  2.882e-04 -1.212e-07 
  6.7900e-10  1.100e+00  1.100e+00  2.813e-04 -1.145e-07 
  6.8000e-10  1.100e+00  1.100e+00  2.743e-04 -1.079e-07 
  6.8100e-10  1.100e+00  1.100e+00  2.673e-04 -1.012e-07 
  6.8200e-10  1.100e+00  1.100e+00  2.604e-04 -9.454e-08 
  6.8300e-10  1.100e+00  1.100e+00  2.534e-04 -8.787e-08 
  6.8400e-10  1.100e+00  1.100e+00  2.464e-04 -8.120e-08 
  6.8500e-10  1.100e+00  1.100e+00  2.395e-04 -7.453e-08 
  6.8600e-10  1.100e+00  1.100e+00  2.325e-04 -6.786e-08 
  6.8700e-10  1.100e+00  1.100e+00  2.255e-04 -6.119e-08 
  6.8800e-10  1.100e+00  1.100e+00  2.186e-04 -5.452e-08 
  6.8900e-10  1.100e+00  1.100e+00  2.116e-04 -4.785e-08 
  6.9000e-10  1.100e+00  1.100e+00  2.046e-04 -4.119e-08 
  6.9100e-10  1.100e+00  1.100e+00  1.977e-04 -3.452e-08 
  6.9200e-10  1.100e+00  1.100e+00  1.907e-04 -2.785e-08 
  6.9300e-10  1.100e+00  1.100e+00  1.837e-04 -2.118e-08 
  6.9400e-10  1.100e+00  1.100e+00  1.768e-04 -1.451e-08 
  6.9500e-10  1.100e+00  1.100e+00  1.698e-04 -7.840e-09 
  6.9600e-10  1.100e+00  1.100e+00  1.628e-04 -1.170e-09 
  6.9700e-10  1.100e+00  1.100e+00  1.559e-04  5.499e-09 
  6.9800e-10  1.100e+00  1.100e+00  1.489e-04  1.217e-08 
  6.9900e-10  1.100e+00  1.100e+00  1.419e-04  1.884e-08 
  7.0000e-10  1.100e+00  1.100e+00  1.350e-04  2.551e-08 
  7.0100e-10  1.100e+00  1.100e+00  1.280e-04  3.218e-08 
  7.0200e-10  1.100e+00  1.100e+00  1.210e-04  3.884e-08 
  7.0300e-10  1.100e+00  1.100e+00  1.141e-04  4.551e-08 
  7.0400e-10  1.100e+00  1.100e+00  1.071e-04  5.218e-08 
  7.0500e-10  1.100e+00  1.100e+00  1.041e-04  5.299e-08 
  7.0600e-10  1.100e+00  1.100e+00  1.045e-04  4.868e-08 
  7.0700e-10  1.100e+00  1.100e+00  1.049e-04  4.437e-08 
  7.0800e-10  1.100e+00  1.100e+00  1.053e-04  4.006e-08 
  7.0900e-10  1.100e+00  1.100e+00  1.057e-04  3.574e-08 
  7.1000e-10  1.100e+00  1.100e+00  1.061e-04  3.143e-08 
  7.1100e-10  1.100e+00  1.100e+00  1.066e-04  2.712e-08 
  7.1200e-10  1.100e+00  1.100e+00  1.070e-04  2.281e-08 
  7.1300e-10  1.100e+00  1.100e+00  1.074e-04  1.850e-08 
  7.1400e-10  1.100e+00  1.100e+00  1.078e-04  1.419e-08 
  7.1500e-10  1.100e+00  1.100e+00  1.082e-04  9.881e-09 
  7.1600e-10  1.100e+00  1.100e+00  1.086e-04  5.570e-09 
  7.1700e-10  1.100e+00  1.100e+00  1.090e-04  1.260e-09 
  7.1800e-10  1.100e+00  1.100e+00  1.094e-04 -3.051e-09 
  7.1900e-10  1.100e+00  1.100e+00  1.098e-04 -7.361e-09 
  7.2000e-10  1.100e+00  1.100e+00  1.103e-04 -1.167e-08 
  7.2100e-10  1.100e+00  1.100e+00  1.107e-04 -1.598e-08 
  7.2200e-10  1.100e+00  1.100e+00  1.111e-04 -2.029e-08 
  7.2300e-10  1.100e+00  1.100e+00  1.115e-04 -2.460e-08 
  7.2400e-10  1.100e+00  1.100e+00  1.119e-04 -2.891e-08 
  7.2500e-10  1.100e+00  1.100e+00  1.123e-04 -3.323e-08 
  7.2600e-10  1.100e+00  1.100e+00  1.127e-04 -3.754e-08 
  7.2700e-10  1.100e+00  1.100e+00  1.131e-04 -4.185e-08 
  7.2800e-10  1.100e+00  1.100e+00  1.136e-04 -4.616e-08 
  7.2900e-10  1.100e+00  1.100e+00  1.140e-04 -5.047e-08 
  7.3000e-10  1.100e+00  1.100e+00  1.144e-04 -5.478e-08 
  7.3100e-10  1.100e+00  1.100e+00  1.148e-04 -5.909e-08 
  7.3200e-10  1.100e+00  1.100e+00  1.152e-04 -6.340e-08 
  7.3300e-10  1.100e+00  1.100e+00  1.156e-04 -6.771e-08 
  7.3400e-10  1.100e+00  1.100e+00  1.160e-04 -7.202e-08 
  7.3500e-10  1.100e+00  1.100e+00  1.164e-04 -7.633e-08 
  7.3600e-10  1.100e+00  1.100e+00  1.169e-04 -8.064e-08 
  7.3700e-10  1.100e+00  1.100e+00  1.173e-04 -8.495e-08 
  7.3800e-10  1.100e+00  1.100e+00  1.177e-04 -8.926e-08 
  7.3900e-10  1.100e+00  1.100e+00  1.181e-04 -9.357e-08 
  7.4000e-10  1.100e+00  1.100e+00  1.185e-04 -9.789e-08 
  7.4100e-10  1.100e+00  1.100e+00  1.189e-04 -1.022e-07 
  7.4200e-10  1.100e+00  1.100e+00  1.193e-04 -1.065e-07 
  7.4300e-10  1.100e+00  1.100e+00  1.197e-04 -1.108e-07 
  7.4400e-10  1.100e+00  1.100e+00  1.201e-04 -1.151e-07 
  7.4500e-10  1.100e+00  1.100e+00  1.206e-04 -1.194e-07 
  7.4600e-10  1.100e+00  1.100e+00  1.210e-04 -1.237e-07 
  7.4700e-10  1.100e+00  1.100e+00  1.214e-04 -1.281e-07 
  7.4800e-10  1.100e+00  1.100e+00  1.218e-04 -1.324e-07 
  7.4900e-10  1.100e+00  1.100e+00  1.222e-04 -1.367e-07 
  7.5000e-10  1.100e+00  1.100e+00  1.226e-04 -1.410e-07 
  7.5100e-10  1.100e+00  1.100e+00  1.230e-04 -1.453e-07 
  7.5200e-10  1.100e+00  1.100e+00  1.234e-04 -1.496e-07 
  7.5300e-10  1.100e+00  1.100e+00  1.239e-04 -1.539e-07 
  7.5400e-10  1.100e+00  1.100e+00  1.243e-04 -1.582e-07 
  7.5500e-10  1.100e+00  1.100e+00  1.244e-04 -1.593e-07 
  7.5600e-10  1.100e+00  1.100e+00  1.243e-04 -1.568e-07 
  7.5700e-10  1.100e+00  1.100e+00  1.241e-04 -1.543e-07 
  7.5800e-10  1.100e+00  1.100e+00  1.239e-04 -1.518e-07 
  7.5900e-10  1.100e+00  1.100e+00  1.238e-04 -1.493e-07 
  7.6000e-10  1.100e+00  1.100e+00  1.236e-04 -1.468e-07 
  7.6100e-10  1.100e+00  1.100e+00  1.234e-04 -1.442e-07 
  7.6200e-10  1.100e+00  1.100e+00  1.233e-04 -1.417e-07 
  7.6300e-10  1.100e+00  1.100e+00  1.231e-04 -1.392e-07 
  7.6400e-10  1.100e+00  1.100e+00  1.230e-04 -1.367e-07 
  7.6500e-10  1.100e+00  1.100e+00  1.228e-04 -1.342e-07 
  7.6600e-10  1.100e+00  1.100e+00  1.226e-04 -1.317e-07 
  7.6700e-10  1.100e+00  1.100e+00  1.225e-04 -1.292e-07 
  7.6800e-10  1.100e+00  1.100e+00  1.223e-04 -1.267e-07 
  7.6900e-10  1.100e+00  1.100e+00  1.222e-04 -1.241e-07 
  7.7000e-10  1.100e+00  1.100e+00  1.220e-04 -1.216e-07 
  7.7100e-10  1.100e+00  1.100e+00  1.218e-04 -1.191e-07 
  7.7200e-10  1.100e+00  1.100e+00  1.217e-04 -1.166e-07 
  7.7300e-10  1.100e+00  1.100e+00  1.215e-04 -1.141e-07 
  7.7400e-10  1.100e+00  1.100e+00  1.214e-04 -1.116e-07 
  7.7500e-10  1.100e+00  1.100e+00  1.212e-04 -1.091e-07 
  7.7600e-10  1.100e+00  1.100e+00  1.210e-04 -1.065e-07 
  7.7700e-10  1.100e+00  1.100e+00  1.209e-04 -1.040e-07 
  7.7800e-10  1.100e+00  1.100e+00  1.207e-04 -1.015e-07 
  7.7900e-10  1.100e+00  1.100e+00  1.206e-04 -9.901e-08 
  7.8000e-10  1.100e+00  1.100e+00  1.204e-04 -9.650e-08 
  7.8100e-10  1.100e+00  1.100e+00  1.202e-04 -9.398e-08 
  7.8200e-10  1.100e+00  1.100e+00  1.201e-04 -9.147e-08 
  7.8300e-10  1.100e+00  1.100e+00  1.199e-04 -8.896e-08 
  7.8400e-10  1.100e+00  1.100e+00  1.198e-04 -8.644e-08 
  7.8500e-10  1.100e+00  1.100e+00  1.196e-04 -8.393e-08 
  7.8600e-10  1.100e+00  1.100e+00  1.194e-04 -8.142e-08 
  7.8700e-10  1.100e+00  1.100e+00  1.193e-04 -7.890e-08 
  7.8800e-10  1.100e+00  1.100e+00  1.191e-04 -7.639e-08 
  7.8900e-10  1.100e+00  1.100e+00  1.189e-04 -7.388e-08 
  7.9000e-10  1.100e+00  1.100e+00  1.188e-04 -7.136e-08 
  7.9100e-10  1.100e+00  1.100e+00  1.186e-04 -6.885e-08 
  7.9200e-10  1.100e+00  1.100e+00  1.185e-04 -6.634e-08 
  7.9300e-10  1.100e+00  1.100e+00  1.183e-04 -6.382e-08 
  7.9400e-10  1.100e+00  1.100e+00  1.181e-04 -6.131e-08 
  7.9500e-10  1.100e+00  1.100e+00  1.180e-04 -5.880e-08 
  7.9600e-10  1.100e+00  1.100e+00  1.178e-04 -5.628e-08 
  7.9700e-10  1.100e+00  1.100e+00  1.177e-04 -5.377e-08 
  7.9800e-10  1.100e+00  1.100e+00  1.175e-04 -5.126e-08 
  7.9900e-10  1.100e+00  1.100e+00  1.173e-04 -4.874e-08 
  8.0000e-10  1.100e+00  1.100e+00  1.172e-04 -4.623e-08 
  8.0100e-10  1.100e+00  1.100e+00  1.170e-04 -4.372e-08 
  8.0200e-10  1.100e+00  1.100e+00  1.169e-04 -4.121e-08 
  8.0300e-10  1.100e+00  1.100e+00  1.167e-04 -3.869e-08 
  8.0400e-10  1.100e+00  1.100e+00  1.165e-04 -3.618e-08 
  8.0500e-10  1.100e+00  1.100e+00  1.164e-04 -3.367e-08 
  8.0600e-10  1.100e+00  1.100e+00  1.162e-04 -3.115e-08 
  8.0700e-10  1.100e+00  1.100e+00  1.161e-04 -2.864e-08 
  8.0800e-10  1.100e+00  1.100e+00  1.159e-04 -2.613e-08 
  8.0900e-10  1.100e+00  1.100e+00  1.157e-04 -2.361e-08 
  8.1000e-10  1.100e+00  1.100e+00  1.156e-04 -2.110e-08 
  8.1100e-10  1.100e+00  1.100e+00  1.154e-04 -1.859e-08 
  8.1200e-10  1.100e+00  1.100e+00  1.152e-04 -1.607e-08 
  8.1300e-10  1.100e+00  1.100e+00  1.151e-04 -1.356e-08 
  8.1400e-10  1.100e+00  1.100e+00  1.149e-04 -1.105e-08 
  8.1500e-10  1.100e+00  1.100e+00  1.148e-04 -8.533e-09 
  8.1600e-10  1.100e+00  1.100e+00  1.146e-04 -6.019e-09 
  8.1700e-10  1.100e+00  1.100e+00  1.144e-04 -3.506e-09 
  8.1800e-10  1.100e+00  1.100e+00  1.143e-04 -9.929e-10 
  8.1900e-10  1.100e+00  1.100e+00  1.141e-04  1.520e-09 
  8.2000e-10  1.100e+00  1.100e+00  1.140e-04  4.034e-09 
  8.2100e-10  1.100e+00  1.100e+00  1.138e-04  6.547e-09 
  8.2200e-10  1.100e+00  1.100e+00  1.136e-04  9.060e-09 
  8.2300e-10  1.100e+00  1.100e+00  1.135e-04  1.157e-08 
  8.2400e-10  1.100e+00  1.100e+00  1.133e-04  1.409e-08 
  8.2500e-10  1.100e+00  1.100e+00  1.132e-04  1.660e-08 
  8.2600e-10  1.100e+00  1.100e+00  1.130e-04  1.911e-08 
  8.2700e-10  1.100e+00  1.100e+00  1.128e-04  2.163e-08 
  8.2800e-10  1.100e+00  1.100e+00  1.127e-04  2.414e-08 
  8.2900e-10  1.100e+00  1.100e+00  1.125e-04  2.665e-08 
  8.3000e-10  1.100e+00  1.100e+00  1.124e-04  2.917e-08 
  8.3100e-10  1.100e+00  1.100e+00  1.122e-04  3.168e-08 
  8.3200e-10  1.100e+00  1.100e+00  1.120e-04  3.419e-08 
  8.3300e-10  1.100e+00  1.100e+00  1.119e-04  3.671e-08 
  8.3400e-10  1.100e+00  1.100e+00  1.117e-04  3.922e-08 
  8.3500e-10  1.100e+00  1.100e+00  1.116e-04  4.173e-08 
  8.3600e-10  1.100e+00  1.100e+00  1.114e-04  4.425e-08 
  8.3700e-10  1.100e+00  1.100e+00  1.112e-04  4.676e-08 
  8.3800e-10  1.100e+00  1.100e+00  1.111e-04  4.927e-08 
  8.3900e-10  1.100e+00  1.100e+00  1.109e-04  5.179e-08 
  8.4000e-10  1.100e+00  1.100e+00  1.109e-04  5.136e-08 
  8.4100e-10  1.100e+00  1.100e+00  1.110e-04  4.967e-08 
  8.4200e-10  1.100e+00  1.100e+00  1.111e-04  4.798e-08 
  8.4300e-10  1.100e+00  1.100e+00  1.112e-04  4.629e-08 
  8.4400e-10  1.100e+00  1.100e+00  1.113e-04  4.460e-08 
  8.4500e-10  1.100e+00  1.100e+00  1.114e-04  4.290e-08 
  8.4600e-10  1.100e+00  1.100e+00  1.115e-04  4.121e-08 
  8.4700e-10  1.100e+00  1.100e+00  1.116e-04  3.952e-08 
  8.4800e-10  1.100e+00  1.100e+00  1.117e-04  3.783e-08 
  8.4900e-10  1.100e+00  1.100e+00  1.118e-04  3.614e-08 
  8.5000e-10  1.100e+00  1.100e+00  1.119e-04  3.445e-08 
  8.5100e-10  1.100e+00  1.100e+00  1.120e-04  3.275e-08 
  8.5200e-10  1.100e+00  1.100e+00  1.121e-04  3.106e-08 
  8.5300e-10  1.100e+00  1.100e+00  1.122e-04  2.937e-08 
  8.5400e-10  1.100e+00  1.100e+00  1.122e-04  2.768e-08 
  8.5500e-10  1.100e+00  1.100e+00  1.123e-04  2.599e-08 
  8.5600e-10  1.100e+00  1.100e+00  1.124e-04  2.429e-08 
  8.5700e-10  1.100e+00  1.100e+00  1.125e-04  2.260e-08 
  8.5800e-10  1.100e+00  1.100e+00  1.126e-04  2.091e-08 
  8.5900e-10  1.100e+00  1.100e+00  1.127e-04  1.922e-08 
  8.6000e-10  1.100e+00  1.100e+00  1.128e-04  1.753e-08 
  8.6100e-10  1.100e+00  1.100e+00  1.129e-04  1.584e-08 
  8.6200e-10  1.100e+00  1.100e+00  1.130e-04  1.414e-08 
  8.6300e-10  1.100e+00  1.100e+00  1.131e-04  1.245e-08 
  8.6400e-10  1.100e+00  1.100e+00  1.132e-04  1.076e-08 
  8.6500e-10  1.100e+00  1.100e+00  1.133e-04  9.069e-09 
  8.6600e-10  1.100e+00  1.100e+00  1.134e-04  7.377e-09 
  8.6700e-10  1.100e+00  1.100e+00  1.135e-04  5.685e-09 
  8.6800e-10  1.100e+00  1.100e+00  1.136e-04  3.994e-09 
  8.6900e-10  1.100e+00  1.100e+00  1.137e-04  2.302e-09 
  8.7000e-10  1.100e+00  1.100e+00  1.138e-04  6.102e-10 
  8.7100e-10  1.100e+00  1.100e+00  1.139e-04 -1.082e-09 
  8.7200e-10  1.100e+00  1.100e+00  1.139e-04 -2.773e-09 
  8.7300e-10  1.100e+00  1.100e+00  1.140e-04 -4.465e-09 
  8.7400e-10  1.100e+00  1.100e+00  1.141e-04 -6.157e-09 
  8.7500e-10  1.100e+00  1.100e+00  1.142e-04 -7.848e-09 
  8.7600e-10  1.100e+00  1.100e+00  1.143e-04 -9.540e-09 
  8.7700e-10  1.100e+00  1.100e+00  1.144e-04 -1.123e-08 
  8.7800e-10  1.100e+00  1.100e+00  1.145e-04 -1.292e-08 
  8.7900e-10  1.100e+00  1.100e+00  1.146e-04 -1.462e-08 
  8.8000e-10  1.100e+00  1.100e+00  1.147e-04 -1.631e-08 
  8.8100e-10  1.100e+00  1.100e+00  1.148e-04 -1.800e-08 
  8.8200e-10  1.100e+00  1.100e+00  1.149e-04 -1.969e-08 
  8.8300e-10  1.100e+00  1.100e+00  1.150e-04 -2.138e-08 
  8.8400e-10  1.100e+00  1.100e+00  1.151e-04 -2.307e-08 
  8.8500e-10  1.100e+00  1.100e+00  1.152e-04 -2.477e-08 
  8.8600e-10  1.100e+00  1.100e+00  1.153e-04 -2.646e-08 
  8.8700e-10  1.100e+00  1.100e+00  1.154e-04 -2.815e-08 
  8.8800e-10  1.100e+00  1.100e+00  1.155e-04 -2.984e-08 
  8.8900e-10  1.100e+00  1.100e+00  1.155e-04 -3.153e-08 
  8.9000e-10  1.100e+00  1.100e+00  1.156e-04 -3.322e-08 
  8.9100e-10  1.100e+00  1.100e+00  1.157e-04 -3.492e-08 
  8.9200e-10  1.100e+00  1.100e+00  1.158e-04 -3.661e-08 
  8.9300e-10  1.100e+00  1.100e+00  1.159e-04 -3.830e-08 
  8.9400e-10  1.100e+00  1.100e+00  1.160e-04 -3.999e-08 
  8.9500e-10  1.100e+00  1.100e+00  1.161e-04 -4.168e-08 
  8.9600e-10  1.100e+00  1.100e+00  1.162e-04 -4.338e-08 
  8.9700e-10  1.100e+00  1.100e+00  1.163e-04 -4.507e-08 
  8.9800e-10  1.100e+00  1.100e+00  1.164e-04 -4.676e-08 
  8.9900e-10  1.100e+00  1.100e+00  1.165e-04 -4.845e-08 
  9.0000e-10  1.100e+00  1.100e+00  1.166e-04 -5.014e-08 
  9.0100e-10  1.100e+00  1.100e+00  1.167e-04 -5.183e-08 
  9.0200e-10  1.100e+00  1.100e+00  1.168e-04 -5.353e-08 
  9.0300e-10  1.100e+00  1.100e+00  1.169e-04 -5.522e-08 
  9.0400e-10  1.100e+00  1.100e+00  1.170e-04 -5.691e-08 
  9.0500e-10  1.100e+00  1.100e+00  1.171e-04 -5.860e-08 
  9.0600e-10  1.100e+00  1.100e+00  1.172e-04 -6.029e-08 
  9.0700e-10  1.100e+00  1.100e+00  1.172e-04 -6.198e-08 
  9.0800e-10  1.100e+00  1.100e+00  1.173e-04 -6.368e-08 
  9.0900e-10  1.100e+00  1.100e+00  1.174e-04 -6.537e-08 
  9.1000e-10  1.100e+00  1.100e+00  1.175e-04 -6.706e-08 
  9.1100e-10  1.100e+00  1.100e+00  1.176e-04 -6.875e-08 
  9.1200e-10  1.100e+00  1.100e+00  1.177e-04 -7.044e-08 
  9.1300e-10  1.100e+00  1.100e+00  1.178e-04 -7.213e-08 
  9.1400e-10  1.100e+00  1.100e+00  1.179e-04 -7.383e-08 
  9.1500e-10  1.100e+00  1.100e+00  1.180e-04 -7.552e-08 
  9.1600e-10  1.100e+00  1.100e+00  1.181e-04 -7.721e-08 
  9.1700e-10  1.100e+00  1.100e+00  1.182e-04 -7.890e-08 
  9.1800e-10  1.100e+00  1.100e+00  1.183e-04 -8.059e-08 
  9.1900e-10  1.100e+00  1.100e+00  1.184e-04 -8.229e-08 
  9.2000e-10  1.100e+00  1.100e+00  1.185e-04 -8.398e-08 
  9.2100e-10  1.100e+00  1.100e+00  1.186e-04 -8.567e-08 
  9.2200e-10  1.100e+00  1.100e+00  1.187e-04 -8.736e-08 
  9.2300e-10  1.100e+00  1.100e+00  1.188e-04 -8.905e-08 
  9.2400e-10  1.100e+00  1.100e+00  1.188e-04 -9.074e-08 
  9.2500e-10  1.100e+00  1.100e+00  1.189e-04 -9.244e-08 
  9.2600e-10  1.100e+00  1.100e+00  1.190e-04 -9.413e-08 
  9.2700e-10  1.100e+00  1.100e+00  1.191e-04 -9.582e-08 
  9.2800e-10  1.100e+00  1.100e+00  1.192e-04 -9.751e-08 
  9.2900e-10  1.100e+00  1.100e+00  1.193e-04 -9.920e-08 
  9.3000e-10  1.100e+00  1.100e+00  1.194e-04 -1.009e-07 
  9.3100e-10  1.100e+00  1.100e+00  1.195e-04 -1.026e-07 
  9.3200e-10  1.100e+00  1.100e+00  1.196e-04 -1.043e-07 
  9.3300e-10  1.100e+00  1.100e+00  1.197e-04 -1.060e-07 
  9.3400e-10  1.100e+00  1.100e+00  1.198e-04 -1.077e-07 
  9.3500e-10  1.100e+00  1.100e+00  1.199e-04 -1.094e-07 
  9.3600e-10  1.100e+00  1.100e+00  1.200e-04 -1.110e-07 
  9.3700e-10  1.100e+00  1.100e+00  1.201e-04 -1.127e-07 
  9.3800e-10  1.100e+00  1.100e+00  1.202e-04 -1.144e-07 
  9.3900e-10  1.100e+00  1.100e+00  1.203e-04 -1.161e-07 
  9.4000e-10  1.100e+00  1.100e+00  1.204e-04 -1.178e-07 
  9.4100e-10  1.100e+00  1.100e+00  1.205e-04 -1.195e-07 
  9.4200e-10  1.100e+00  1.100e+00  1.205e-04 -1.212e-07 
  9.4300e-10  1.100e+00  1.100e+00  1.206e-04 -1.229e-07 
  9.4400e-10  1.100e+00  1.100e+00  1.207e-04 -1.246e-07 
  9.4500e-10  1.100e+00  1.100e+00  1.208e-04 -1.263e-07 
  9.4600e-10  1.100e+00  1.100e+00  1.209e-04 -1.280e-07 
  9.4700e-10  1.100e+00  1.100e+00  1.210e-04 -1.297e-07 
  9.4800e-10  1.100e+00  1.100e+00  1.211e-04 -1.313e-07 
  9.4900e-10  1.100e+00  1.100e+00  1.212e-04 -1.330e-07 
  9.5000e-10  1.100e+00  1.100e+00  1.213e-04 -1.347e-07 
  9.5100e-10  1.100e+00  1.100e+00  1.214e-04 -1.364e-07 
  9.5200e-10  1.100e+00  1.100e+00  1.215e-04 -1.381e-07 
  9.5300e-10  1.100e+00  1.100e+00  1.216e-04 -1.398e-07 
  9.5400e-10  1.100e+00  1.100e+00  1.217e-04 -1.415e-07 
  9.5500e-10  1.100e+00  1.100e+00  1.218e-04 -1.432e-07 
  9.5600e-10  1.100e+00  1.100e+00  1.219e-04 -1.449e-07 
  9.5700e-10  1.100e+00  1.100e+00  1.220e-04 -1.466e-07 
  9.5800e-10  1.100e+00  1.100e+00  1.221e-04 -1.483e-07 
  9.5900e-10  1.100e+00  1.100e+00  1.221e-04 -1.500e-07 
  9.6000e-10  1.100e+00  1.100e+00  1.222e-04 -1.516e-07 
  9.6100e-10  1.100e+00  1.100e+00  1.223e-04 -1.533e-07 
  9.6200e-10  1.100e+00  1.100e+00  1.224e-04 -1.550e-07 
  9.6300e-10  1.100e+00  1.100e+00  1.225e-04 -1.567e-07 
  9.6400e-10  1.100e+00  1.100e+00  1.226e-04 -1.584e-07 
  9.6500e-10  1.100e+00  1.100e+00  1.224e-04 -1.543e-07 
  9.6600e-10  1.100e+00  1.100e+00  1.221e-04 -1.485e-07 
  9.6700e-10  1.100e+00  1.100e+00  1.218e-04 -1.427e-07 
  9.6800e-10  1.100e+00  1.100e+00  1.215e-04 -1.368e-07 
  9.6900e-10  1.100e+00  1.100e+00  1.212e-04 -1.310e-07 
  9.7000e-10  1.100e+00  1.100e+00  1.209e-04 -1.252e-07 
  9.7100e-10  1.100e+00  1.100e+00  1.206e-04 -1.193e-07 
  9.7200e-10  1.100e+00  1.100e+00  1.203e-04 -1.135e-07 
  9.7300e-10  1.100e+00  1.100e+00  1.200e-04 -1.077e-07 
  9.7400e-10  1.100e+00  1.100e+00  1.197e-04 -1.019e-07 
  9.7500e-10  1.100e+00  1.100e+00  1.194e-04 -9.602e-08 
  9.7600e-10  1.100e+00  1.100e+00  1.191e-04 -9.019e-08 
  9.7700e-10  1.100e+00  1.100e+00  1.188e-04 -8.436e-08 
  9.7800e-10  1.100e+00  1.100e+00  1.185e-04 -7.853e-08 
  9.7900e-10  1.100e+00  1.100e+00  1.182e-04 -7.270e-08 
  9.8000e-10  1.100e+00  1.100e+00  1.179e-04 -6.687e-08 
  9.8100e-10  1.100e+00  1.100e+00  1.176e-04 -6.104e-08 
  9.8200e-10  1.100e+00  1.100e+00  1.173e-04 -5.521e-08 
  9.8300e-10  1.100e+00  1.100e+00  1.170e-04 -4.938e-08 
  9.8400e-10  1.100e+00  1.100e+00  1.167e-04 -4.355e-08 
  9.8500e-10  1.100e+00  1.100e+00  1.164e-04 -3.772e-08 
  9.8600e-10  1.100e+00  1.100e+00  1.161e-04 -3.189e-08 
  9.8700e-10  1.100e+00  1.100e+00  1.158e-04 -2.606e-08 
  9.8800e-10  1.100e+00  1.100e+00  1.155e-04 -2.023e-08 
  9.8900e-10  1.100e+00  1.100e+00  1.152e-04 -1.440e-08 
  9.9000e-10  1.100e+00  1.100e+00  1.149e-04 -8.567e-09 
  9.9100e-10  1.100e+00  1.100e+00  1.146e-04 -2.736e-09 
  9.9200e-10  1.100e+00  1.100e+00  1.143e-04  3.094e-09 
  9.9300e-10  1.100e+00  1.100e+00  1.140e-04  8.925e-09 
  9.9400e-10  1.100e+00  1.100e+00  1.137e-04  1.476e-08 
  9.9500e-10  1.100e+00  1.100e+00  1.134e-04  2.059e-08 
  9.9600e-10  1.100e+00  1.100e+00  1.131e-04  2.642e-08 
  9.9700e-10  1.100e+00  1.100e+00  1.128e-04  3.225e-08 
  9.9800e-10  1.100e+00  1.100e+00  1.125e-04  3.808e-08 
  9.9900e-10  1.100e+00  1.100e+00  1.122e-04  4.391e-08 
  1.0000e-09  1.100e+00  1.100e+00  1.118e-04  4.974e-08 
  1.0010e-09  1.078e+00  1.100e+00 -5.879e-04 -7.381e-07 
  1.0020e-09  1.056e+00  1.100e+00 -1.288e-03 -1.526e-06 
  1.0030e-09  1.034e+00  1.100e+00 -1.987e-03 -2.314e-06 
  1.0040e-09  1.012e+00  1.100e+00 -2.687e-03 -3.102e-06 
  1.0050e-09  9.900e-01  1.100e+00 -3.387e-03 -3.890e-06 
  1.0060e-09  9.680e-01  1.100e+00 -4.086e-03 -4.678e-06 
  1.0070e-09  9.460e-01  1.100e+00 -4.690e-03 -5.434e-06 
  1.0080e-09  9.240e-01  1.100e+00 -5.263e-03 -6.180e-06 
  1.0090e-09  9.020e-01  1.100e+00 -5.322e-03 -7.608e-06 
  1.0100e-09  8.800e-01  1.100e+00 -4.373e-03 -1.038e-05 
  1.0110e-09  8.580e-01  1.100e+00 -3.424e-03 -1.314e-05 
  1.0120e-09  8.360e-01  1.100e+00 -2.475e-03 -1.591e-05 
  1.0130e-09  8.140e-01  1.100e+00 -1.525e-03 -1.868e-05 
  1.0140e-09  7.920e-01  1.100e+00 -5.763e-04 -2.145e-05 
  1.0150e-09  7.700e-01  1.100e+00  3.728e-04 -2.422e-05 
  1.0160e-09  7.480e-01  1.100e+00  1.322e-03 -2.698e-05 
  1.0170e-09  7.260e-01  1.100e+00  5.813e-03 -3.092e-05 
  1.0180e-09  7.040e-01  1.100e+00  1.251e-02 -3.557e-05 
  1.0190e-09  6.820e-01  1.100e+00  1.920e-02 -4.023e-05 
  1.0200e-09  6.600e-01  1.100e+00  2.590e-02 -4.488e-05 
  1.0210e-09  6.380e-01  1.100e+00  3.260e-02 -4.954e-05 
  1.0220e-09  6.160e-01  1.100e+00  3.929e-02 -5.420e-05 
  1.0230e-09  5.940e-01  1.100e+00  4.599e-02 -5.885e-05 
  1.0240e-09  5.720e-01  1.100e+00  5.268e-02 -6.351e-05 
  1.0250e-09  5.500e-01  1.100e+00  5.938e-02 -6.817e-05 
  1.0260e-09  5.280e-01  1.100e+00  6.607e-02 -7.282e-05 
  1.0270e-09  5.060e-01  1.100e+00  7.277e-02 -7.748e-05 
  1.0280e-09  4.840e-01  1.100e+00  7.946e-02 -8.214e-05 
  1.0290e-09  4.620e-01  1.100e+00  8.616e-02 -8.679e-05 
  1.0300e-09  4.400e-01  1.100e+00  9.664e-02 -9.118e-05 
  1.0310e-09  4.180e-01  1.100e+00  1.133e-01 -9.514e-05 
  1.0320e-09  3.960e-01  1.100e+00  1.299e-01 -9.910e-05 
  1.0330e-09  3.740e-01  1.100e+00  1.465e-01 -1.031e-04 
  1.0340e-09  3.520e-01  1.100e+00  1.631e-01 -1.070e-04 
  1.0350e-09  3.300e-01  1.100e+00  1.797e-01 -1.110e-04 
  1.0360e-09  3.080e-01  1.100e+00  1.963e-01 -1.149e-04 
  1.0370e-09  2.860e-01  1.100e+00  2.129e-01 -1.189e-04 
  1.0380e-09  2.640e-01  1.100e+00  2.296e-01 -1.229e-04 
  1.0390e-09  2.420e-01  1.100e+00  2.462e-01 -1.268e-04 
  1.0400e-09  2.200e-01  1.100e+00  2.628e-01 -1.308e-04 
  1.0410e-09  1.980e-01  1.100e+00  2.794e-01 -1.348e-04 
  1.0420e-09  1.760e-01  1.100e+00  2.960e-01 -1.387e-04 
  1.0430e-09  1.540e-01  1.100e+00  3.128e-01 -1.427e-04 
  1.0440e-09  1.320e-01  1.100e+00  3.369e-01 -1.459e-04 
  1.0450e-09  1.100e-01  1.100e+00  3.610e-01 -1.492e-04 
  1.0460e-09  8.800e-02  1.100e+00  3.851e-01 -1.525e-04 
  1.0470e-09  6.600e-02  1.100e+00  4.092e-01 -1.558e-04 
  1.0480e-09  4.400e-02  1.100e+00  4.333e-01 -1.591e-04 
  1.0490e-09  2.200e-02  1.100e+00  4.574e-01 -1.624e-04 
  1.0500e-09  0.000e+00  1.100e+00  4.815e-01 -1.656e-04 
  1.0510e-09  0.000e+00  1.100e+00  5.077e-01 -1.621e-04 
  1.0520e-09  0.000e+00  1.100e+00  5.338e-01 -1.585e-04 
  1.0530e-09  0.000e+00  1.100e+00  5.600e-01 -1.551e-04 
  1.0540e-09  0.000e+00  1.100e+00  5.859e-01 -1.523e-04 
  1.0550e-09  0.000e+00  1.100e+00  6.108e-01 -1.497e-04 
  1.0560e-09  0.000e+00  1.100e+00  6.356e-01 -1.471e-04 
  1.0570e-09  0.000e+00  1.100e+00  6.605e-01 -1.446e-04 
  1.0580e-09  0.000e+00  1.100e+00  6.853e-01 -1.420e-04 
  1.0590e-09  0.000e+00  1.100e+00  7.064e-01 -1.376e-04 
  1.0600e-09  0.000e+00  1.100e+00  7.270e-01 -1.330e-04 
  1.0610e-09  0.000e+00  1.100e+00  7.475e-01 -1.284e-04 
  1.0620e-09  0.000e+00  1.100e+00  7.681e-01 -1.238e-04 
  1.0630e-09  0.000e+00  1.100e+00  7.887e-01 -1.192e-04 
  1.0640e-09  0.000e+00  1.100e+00  8.093e-01 -1.146e-04 
  1.0650e-09  0.000e+00  1.100e+00  8.299e-01 -1.100e-04 
  1.0660e-09  0.000e+00  1.100e+00  8.504e-01 -1.054e-04 
  1.0670e-09  0.000e+00  1.100e+00  8.690e-01 -1.008e-04 
  1.0680e-09  0.000e+00  1.100e+00  8.815e-01 -9.602e-05 
  1.0690e-09  0.000e+00  1.100e+00  8.939e-01 -9.125e-05 
  1.0700e-09  0.000e+00  1.100e+00  9.064e-01 -8.648e-05 
  1.0710e-09  0.000e+00  1.100e+00  9.189e-01 -8.171e-05 
  1.0720e-09  0.000e+00  1.100e+00  9.313e-01 -7.693e-05 
  1.0730e-09  0.000e+00  1.100e+00  9.438e-01 -7.216e-05 
  1.0740e-09  0.000e+00  1.100e+00  9.563e-01 -6.739e-05 
  1.0750e-09  0.000e+00  1.100e+00  9.687e-01 -6.262e-05 
  1.0760e-09  0.000e+00  1.100e+00  9.812e-01 -5.784e-05 
  1.0770e-09  0.000e+00  1.100e+00  9.936e-01 -5.307e-05 
  1.0780e-09  0.000e+00  1.100e+00  1.006e+00 -4.830e-05 
  1.0790e-09  0.000e+00  1.100e+00  1.016e+00 -4.440e-05 
  1.0800e-09  0.000e+00  1.100e+00  1.023e+00 -4.138e-05 
  1.0810e-09  0.000e+00  1.100e+00  1.029e+00 -3.836e-05 
  1.0820e-09  0.000e+00  1.100e+00  1.036e+00 -3.535e-05 
  1.0830e-09  0.000e+00  1.100e+00  1.043e+00 -3.233e-05 
  1.0840e-09  0.000e+00  1.100e+00  1.050e+00 -2.931e-05 
  1.0850e-09  0.000e+00  1.100e+00  1.056e+00 -2.630e-05 
  1.0860e-09  0.000e+00  1.100e+00  1.063e+00 -2.328e-05 
  1.0870e-09  0.000e+00  1.100e+00  1.070e+00 -2.026e-05 
  1.0880e-09  0.000e+00  1.100e+00  1.073e+00 -1.840e-05 
  1.0890e-09  0.000e+00  1.100e+00  1.075e+00 -1.688e-05 
  1.0900e-09  0.000e+00  1.100e+00  1.077e+00 -1.536e-05 
  1.0910e-09  0.000e+00  1.100e+00  1.079e+00 -1.384e-05 
  1.0920e-09  0.000e+00  1.100e+00  1.081e+00 -1.232e-05 
  1.0930e-09  0.000e+00  1.100e+00  1.083e+00 -1.080e-05 
  1.0940e-09  0.000e+00  1.100e+00  1.085e+00 -9.278e-06 
  1.0950e-09  0.000e+00  1.100e+00  1.087e+00 -7.757e-06 
  1.0960e-09  0.000e+00  1.100e+00  1.089e+00 -6.297e-06 
  1.0970e-09  0.000e+00  1.100e+00  1.089e+00 -5.956e-06 
  1.0980e-09  0.000e+00  1.100e+00  1.090e+00 -5.615e-06 
  1.0990e-09  0.000e+00  1.100e+00  1.091e+00 -5.273e-06 
  1.1000e-09  0.000e+00  1.100e+00  1.091e+00 -4.932e-06 
  1.1010e-09  0.000e+00  1.100e+00  1.092e+00 -4.591e-06 
  1.1020e-09  0.000e+00  1.100e+00  1.093e+00 -4.249e-06 
  1.1030e-09  0.000e+00  1.100e+00  1.093e+00 -3.908e-06 
  1.1040e-09  0.000e+00  1.100e+00  1.094e+00 -3.567e-06 
  1.1050e-09  0.000e+00  1.100e+00  1.094e+00 -3.225e-06 
  1.1060e-09  0.000e+00  1.100e+00  1.095e+00 -2.884e-06 
  1.1070e-09  0.000e+00  1.100e+00  1.096e+00 -2.543e-06 
  1.1080e-09  0.000e+00  1.100e+00  1.096e+00 -2.201e-06 
  1.1090e-09  0.000e+00  1.100e+00  1.097e+00 -1.860e-06 
  1.1100e-09  0.000e+00  1.100e+00  1.098e+00 -1.518e-06 
  1.1110e-09  0.000e+00  1.100e+00  1.098e+00 -1.306e-06 
  1.1120e-09  0.000e+00  1.100e+00  1.098e+00 -1.217e-06 
  1.1130e-09  0.000e+00  1.100e+00  1.098e+00 -1.127e-06 
[...]
  2.1930e-09  0.000e+00  8.500e-01  8.500e-01  3.977e-08 
  2.1940e-09  0.000e+00  8.500e-01  8.500e-01  2.949e-08 
  2.1950e-09  0.000e+00  8.500e-01  8.500e-01  1.920e-08 
  2.1960e-09  0.000e+00  8.500e-01  8.500e-01  8.916e-09 
  2.1970e-09  0.000e+00  8.500e-01  8.500e-01 -1.370e-09 
  2.1980e-09  0.000e+00  8.500e-01  8.500e-01 -1.166e-08 
  2.1990e-09  0.000e+00  8.500e-01  8.500e-01 -2.194e-08 
  2.2000e-09  0.000e+00  8.500e-01  8.500e-01 -3.223e-08 
  2.2010e-09  0.000e+00  8.500e-01  8.500e-01 -4.251e-08 
  2.2020e-09  0.000e+00  8.500e-01  8.500e-01 -5.280e-08 
  2.2030e-09  0.000e+00  8.500e-01  8.500e-01 -6.309e-08 
  2.2040e-09  0.000e+00  8.500e-01  8.500e-01 -7.337e-08 
  2.2050e-09  0.000e+00  8.500e-01  8.500e-01 -8.366e-08 
  2.2060e-09  0.000e+00  8.500e-01  8.500e-01 -9.394e-08 
  2.2070e-09  0.000e+00  8.500e-01  8.500e-01 -1.042e-07 
  2.2080e-09  0.000e+00  8.500e-01  8.500e-01 -1.145e-07 
  2.2090e-09  0.000e+00  8.500e-01  8.500e-01 -1.248e-07 
  2.2100e-09  0.000e+00  8.500e-01  8.500e-01 -1.351e-07 
  2.2110e-09  0.000e+00  8.500e-01  8.500e-01 -1.454e-07 
  2.2120e-09  0.000e+00  8.500e-01  8.500e-01 -1.557e-07 
  2.2130e-09  0.000e+00  8.500e-01  8.500e-01 -1.659e-07 
  2.2140e-09  0.000e+00  8.500e-01  8.500e-01 -1.762e-07 
  2.2150e-09  0.000e+00  8.500e-01  8.500e-01 -1.865e-07 
  2.2160e-09  0.000e+00  8.500e-01  8.500e-01 -1.968e-07 
  2.2170e-09  0.000e+00  8.500e-01  8.500e-01 -2.071e-07 
  2.2180e-09  0.000e+00  8.500e-01  8.500e-01 -2.174e-07 
  2.2190e-09  0.000e+00  8.500e-01  8.500e-01 -2.277e-07 
  2.2200e-09  0.000e+00  8.500e-01  8.500e-01 -2.379e-07 
  2.2210e-09  0.000e+00  8.500e-01  8.500e-01 -2.336e-07 
  2.2220e-09  0.000e+00  8.500e-01  8.500e-01 -2.265e-07 
  2.2230e-09  0.000e+00  8.500e-01  8.500e-01 -2.195e-07 
  2.2240e-09  0.000e+00  8.500e-01  8.500e-01 -2.124e-07 
  2.2250e-09  0.000e+00  8.500e-01  8.500e-01 -2.053e-07 
  2.2260e-09  0.000e+00  8.500e-01  8.500e-01 -1.983e-07 
  2.2270e-09  0.000e+00  8.500e-01  8.500e-01 -1.912e-07 
  2.2280e-09  0.000e+00  8.500e-01  8.500e-01 -1.842e-07 
  2.2290e-09  0.000e+00  8.500e-01  8.500e-01 -1.771e-07 
  2.2300e-09  0.000e+00  8.500e-01  8.500e-01 -1.700e-07 
  2.2310e-09  0.000e+00  8.500e-01  8.500e-01 -1.630e-07 
  2.2320e-09  0.000e+00  8.500e-01  8.500e-01 -1.559e-07 
  2.2330e-09  0.000e+00  8.500e-01  8.500e-01 -1.488e-07 
  2.2340e-09  0.000e+00  8.500e-01  8.500e-01 -1.418e-07 
  2.2350e-09  0.000e+00  8.500e-01  8.500e-01 -1.347e-07 
  2.2360e-09  0.000e+00  8.500e-01  8.500e-01 -1.277e-07 
  2.2370e-09  0.000e+00  8.500e-01  8.500e-01 -1.206e-07 
  2.2380e-09  0.000e+00  8.500e-01  8.500e-01 -1.135e-07 
  2.2390e-09  0.000e+00  8.500e-01  8.500e-01 -1.065e-07 
  2.2400e-09  0.000e+00  8.500e-01  8.500e-01 -9.941e-08 
  2.2410e-09  0.000e+00  8.500e-01  8.500e-01 -9.234e-08 
  2.2420e-09  0.000e+00  8.500e-01  8.500e-01 -8.528e-08 
  2.2430e-09  0.000e+00  8.500e-01  8.500e-01 -7.822e-08 
  2.2440e-09  0.000e+00  8.500e-01  8.500e-01 -7.116e-08 
  2.2450e-09  0.000e+00  8.500e-01  8.500e-01 -6.409e-08 
  2.2460e-09  0.000e+00  8.500e-01  8.500e-01 -5.703e-08 
  2.2470e-09  0.000e+00  8.500e-01  8.500e-01 -4.997e-08 
  2.2480e-09  0.000e+00  8.500e-01  8.500e-01 -4.291e-08 
  2.2490e-09  0.000e+00  8.500e-01  8.500e-01 -3.584e-08 
  2.2500e-09  0.000e+00  8.500e-01  8.500e-01 -2.878e-08 
  2.2510e-09  0.000e+00  8.500e-01  8.500e-01 -2.172e-08 
  2.2520e-09  0.000e+00  8.500e-01  8.500e-01 -1.466e-08 
  2.2530e-09  0.000e+00  8.500e-01  8.500e-01 -7.594e-09 
  2.2540e-09  0.000e+00  8.500e-01  8.500e-01 -5.318e-10 
  2.2550e-09  0.000e+00  8.500e-01  8.500e-01  6.531e-09 
  2.2560e-09  0.000e+00  8.500e-01  8.500e-01  1.359e-08 
  2.2570e-09  0.000e+00  8.500e-01  8.500e-01  2.066e-08 
  2.2580e-09  0.000e+00  8.500e-01  8.500e-01  2.772e-08 
  2.2590e-09  0.000e+00  8.500e-01  8.500e-01  3.478e-08 
  2.2600e-09  0.000e+00  8.500e-01  8.500e-01  4.184e-08 
  2.2610e-09  0.000e+00  8.500e-01  8.500e-01  4.891e-08 
  2.2620e-09  0.000e+00  8.500e-01  8.500e-01  5.597e-08 
  2.2630e-09  0.000e+00  8.500e-01  8.500e-01  6.303e-08 
  2.2640e-09  0.000e+00  8.500e-01  8.500e-01  7.009e-08 
  2.2650e-09  0.000e+00  8.500e-01  8.500e-01  7.716e-08 
  2.2660e-09  0.000e+00  8.500e-01  8.500e-01  8.422e-08 
  2.2670e-09  0.000e+00  8.500e-01  8.500e-01  9.128e-08 
  2.2680e-09  0.000e+00  8.500e-01  8.500e-01  9.834e-08 
  2.2690e-09  0.000e+00  8.500e-01  8.500e-01  1.054e-07 
  2.2700e-09  0.000e+00  8.500e-01  8.500e-01  1.125e-07 
  2.2710e-09  0.000e+00  8.500e-01  8.500e-01  1.195e-07 
  2.2720e-09  0.000e+00  8.500e-01  8.500e-01  1.266e-07 
  2.2730e-09  0.000e+00  8.500e-01  8.500e-01  1.337e-07 
  2.2740e-09  0.000e+00  8.500e-01  8.500e-01  1.407e-07 
  2.2750e-09  0.000e+00  8.500e-01  8.500e-01  1.478e-07 
  2.2760e-09  0.000e+00  8.500e-01  8.500e-01  1.548e-07 
  2.2770e-09  0.000e+00  8.500e-01  8.500e-01  1.619e-07 
  2.2780e-09  0.000e+00  8.500e-01  8.500e-01  1.690e-07 
  2.2790e-09  0.000e+00  8.500e-01  8.500e-01  1.760e-07 
  2.2800e-09  0.000e+00  8.500e-01  8.500e-01  1.831e-07 
  2.2810e-09  0.000e+00  8.500e-01  8.500e-01  1.902e-07 
  2.2820e-09  0.000e+00  8.500e-01  8.500e-01  1.972e-07 
  2.2830e-09  0.000e+00  8.500e-01  8.500e-01  2.043e-07 
  2.2840e-09  0.000e+00  8.500e-01  8.500e-01  2.113e-07 
  2.2850e-09  0.000e+00  8.500e-01  8.500e-01  2.184e-07 
  2.2860e-09  0.000e+00  8.500e-01  8.500e-01  2.223e-07 
  2.2870e-09  0.000e+00  8.500e-01  8.500e-01  2.174e-07 
  2.2880e-09  0.000e+00  8.500e-01  8.500e-01  2.124e-07 
  2.2890e-09  0.000e+00  8.500e-01  8.500e-01  2.075e-07 
  2.2900e-09  0.000e+00  8.500e-01  8.500e-01  2.026e-07 
  2.2910e-09  0.000e+00  8.500e-01  8.500e-01  1.976e-07 
  2.2920e-09  0.000e+00  8.500e-01  8.500e-01  1.927e-07 
  2.2930e-09  0.000e+00  8.500e-01  8.500e-01  1.877e-07 
  2.2940e-09  0.000e+00  8.500e-01  8.500e-01  1.828e-07 
  2.2950e-09  0.000e+00  8.500e-01  8.500e-01  1.779e-07 
  2.2960e-09  0.000e+00  8.500e-01  8.500e-01  1.729e-07 
  2.2970e-09  0.000e+00  8.500e-01  8.500e-01  1.680e-07 
  2.2980e-09  0.000e+00  8.500e-01  8.500e-01  1.630e-07 
  2.2990e-09  0.000e+00  8.500e-01  8.500e-01  1.581e-07 
  2.3000e-09  0.000e+00  8.500e-01  8.500e-01  1.532e-07 
  2.3010e-09  0.000e+00  8.500e-01  8.500e-01  1.482e-07 
  2.3020e-09  0.000e+00  8.500e-01  8.500e-01  1.433e-07 
  2.3030e-09  0.000e+00  8.500e-01  8.500e-01  1.384e-07 
  2.3040e-09  0.000e+00  8.500e-01  8.500e-01  1.334e-07 
  2.3050e-09  0.000e+00  8.500e-01  8.500e-01  1.285e-07 
  2.3060e-09  0.000e+00  8.500e-01  8.500e-01  1.235e-07 
  2.3070e-09  0.000e+00  8.500e-01  8.500e-01  1.186e-07 
  2.3080e-09  0.000e+00  8.500e-01  8.500e-01  1.137e-07 
  2.3090e-09  0.000e+00  8.500e-01  8.500e-01  1.087e-07 
  2.3100e-09  0.000e+00  8.500e-01  8.500e-01  1.038e-07 
  2.3110e-09  0.000e+00  8.500e-01  8.500e-01  9.885e-08 
  2.3120e-09  0.000e+00  8.500e-01  8.500e-01  9.392e-08 
  2.3130e-09  0.000e+00  8.500e-01  8.500e-01  8.898e-08 
  2.3140e-09  0.000e+00  8.500e-01  8.500e-01  8.404e-08 
  2.3150e-09  0.000e+00  8.500e-01  8.500e-01  7.910e-08 
  2.3160e-09  0.000e+00  8.500e-01  8.500e-01  7.416e-08 
  2.3170e-09  0.000e+00  8.500e-01  8.500e-01  6.923e-08 
  2.3180e-09  0.000e+00  8.500e-01  8.500e-01  6.429e-08 
  2.3190e-09  0.000e+00  8.500e-01  8.500e-01  5.935e-08 
  2.3200e-09  0.000e+00  8.500e-01  8.500e-01  5.441e-08 
  2.3210e-09  0.000e+00  8.500e-01  8.500e-01  4.947e-08 
  2.3220e-09  0.000e+00  8.500e-01  8.500e-01  4.454e-08 
  2.3230e-09  0.000e+00  8.500e-01  8.500e-01  3.960e-08 
  2.3240e-09  0.000e+00  8.500e-01  8.500e-01  3.466e-08 
  2.3250e-09  0.000e+00  8.500e-01  8.500e-01  2.972e-08 
  2.3260e-09  0.000e+00  8.500e-01  8.500e-01  2.478e-08 
  2.3270e-09  0.000e+00  8.500e-01  8.500e-01  1.985e-08 
  2.3280e-09  0.000e+00  8.500e-01  8.500e-01  1.491e-08 
  2.3290e-09  0.000e+00  8.500e-01  8.500e-01  9.969e-09 
  2.3300e-09  0.000e+00  8.500e-01  8.500e-01  5.031e-09 
  2.3310e-09  0.000e+00  8.500e-01  8.500e-01  9.325e-11 
  2.3320e-09  0.000e+00  8.500e-01  8.500e-01 -4.845e-09 
  2.3330e-09  0.000e+00  8.500e-01  8.500e-01 -9.783e-09 
  2.3340e-09  0.000e+00  8.500e-01  8.500e-01 -1.472e-08 
  2.3350e-09  0.000e+00  8.500e-01  8.500e-01 -1.966e-08 
  2.3360e-09  0.000e+00  8.500e-01  8.500e-01 -2.460e-08 
  2.3370e-09  0.000e+00  8.500e-01  8.500e-01 -2.953e-08 
  2.3380e-09  0.000e+00  8.500e-01  8.500e-01 -3.447e-08 
  2.3390e-09  0.000e+00  8.500e-01  8.500e-01 -3.941e-08 
  2.3400e-09  0.000e+00  8.500e-01  8.500e-01 -4.435e-08 
  2.3410e-09  0.000e+00  8.500e-01  8.500e-01 -4.929e-08 
  2.3420e-09  0.000e+00  8.500e-01  8.500e-01 -5.422e-08 
  2.3430e-09  0.000e+00  8.500e-01  8.500e-01 -5.916e-08 
  2.3440e-09  0.000e+00  8.500e-01  8.500e-01 -6.410e-08 
  2.3450e-09  0.000e+00  8.500e-01  8.500e-01 -6.904e-08 
  2.3460e-09  0.000e+00  8.500e-01  8.500e-01 -7.398e-08 
  2.3470e-09  0.000e+00  8.500e-01  8.500e-01 -7.891e-08 
  2.3480e-09  0.000e+00  8.500e-01  8.500e-01 -8.385e-08 
  2.3490e-09  0.000e+00  8.500e-01  8.500e-01 -8.879e-08 
  2.3500e-09  0.000e+00  8.500e-01  8.500e-01 -9.373e-08 
  2.3510e-09  0.000e+00  8.500e-01  8.500e-01 -9.867e-08 
  2.3520e-09  0.000e+00  8.500e-01  8.500e-01 -1.036e-07 
  2.3530e-09  0.000e+00  8.500e-01  8.500e-01 -1.085e-07 
  2.3540e-09  0.000e+00  8.500e-01  8.500e-01 -1.135e-07 
  2.3550e-09  0.000e+00  8.500e-01  8.500e-01 -1.184e-07 
  2.3560e-09  0.000e+00  8.500e-01  8.500e-01 -1.234e-07 
  2.3570e-09  0.000e+00  8.500e-01  8.500e-01 -1.283e-07 
  2.3580e-09  0.000e+00  8.500e-01  8.500e-01 -1.332e-07 
  2.3590e-09  0.000e+00  8.500e-01  8.500e-01 -1.382e-07 
  2.3600e-09  0.000e+00  8.500e-01  8.500e-01 -1.431e-07 
  2.3610e-09  0.000e+00  8.500e-01  8.500e-01 -1.480e-07 
  2.3620e-09  0.000e+00  8.500e-01  8.500e-01 -1.530e-07 
  2.3630e-09  0.000e+00  8.500e-01  8.500e-01 -1.579e-07 
  2.3640e-09  0.000e+00  8.500e-01  8.500e-01 -1.629e-07 
  2.3650e-09  0.000e+00  8.500e-01  8.500e-01 -1.678e-07 
  2.3660e-09  0.000e+00  8.500e-01  8.500e-01 -1.727e-07 
  2.3670e-09  0.000e+00  8.500e-01  8.500e-01 -1.777e-07 
  2.3680e-09  0.000e+00  8.500e-01  8.500e-01 -1.826e-07 
  2.3690e-09  0.000e+00  8.500e-01  8.500e-01 -1.876e-07 
  2.3700e-09  0.000e+00  8.500e-01  8.500e-01 -1.925e-07 
  2.3710e-09  0.000e+00  8.500e-01  8.500e-01 -1.974e-07 
  2.3720e-09  0.000e+00  8.500e-01  8.500e-01 -2.024e-07 
  2.3730e-09  0.000e+00  8.500e-01  8.500e-01 -2.073e-07 
  2.3740e-09  0.000e+00  8.500e-01  8.500e-01 -2.122e-07 
  2.3750e-09  0.000e+00  8.500e-01  8.500e-01 -2.172e-07 
  2.3760e-09  0.000e+00  8.500e-01  8.500e-01 -2.221e-07 
  2.3770e-09  0.000e+00  8.500e-01  8.500e-01 -2.271e-07 
  2.3780e-09  0.000e+00  8.500e-01  8.500e-01 -2.320e-07 
  2.3790e-09  0.000e+00  8.500e-01  8.500e-01 -2.369e-07 
  2.3800e-09  0.000e+00  8.500e-01  8.500e-01 -2.352e-07 
  2.3810e-09  0.000e+00  8.500e-01  8.500e-01 -2.314e-07 
  2.3820e-09  0.000e+00  8.500e-01  8.500e-01 -2.276e-07 
  2.3830e-09  0.000e+00  8.500e-01  8.500e-01 -2.238e-07 
  2.3840e-09  0.000e+00  8.500e-01  8.500e-01 -2.200e-07 
  2.3850e-09  0.000e+00  8.500e-01  8.500e-01 -2.162e-07 
  2.3860e-09  0.000e+00  8.500e-01  8.500e-01 -2.124e-07 
  2.3870e-09  0.000e+00  8.500e-01  8.500e-01 -2.085e-07 
  2.3880e-09  0.000e+00  8.500e-01  8.500e-01 -2.047e-07 
  2.3890e-09  0.000e+00  8.500e-01  8.500e-01 -2.009e-07 
  2.3900e-09  0.000e+00  8.500e-01  8.500e-01 -1.971e-07 
  2.3910e-09  0.000e+00  8.500e-01  8.500e-01 -1.933e-07 
  2.3920e-09  0.000e+00  8.500e-01  8.500e-01 -1.895e-07 
  2.3930e-09  0.000e+00  8.500e-01  8.500e-01 -1.857e-07 
  2.3940e-09  0.000e+00  8.500e-01  8.500e-01 -1.818e-07 
  2.3950e-09  0.000e+00  8.500e-01  8.500e-01 -1.780e-07 
  2.3960e-09  0.000e+00  8.500e-01  8.500e-01 -1.742e-07 
  2.3970e-09  0.000e+00  8.500e-01  8.500e-01 -1.704e-07 
  2.3980e-09  0.000e+00  8.500e-01  8.500e-01 -1.666e-07 
  2.3990e-09  0.000e+00  8.500e-01  8.500e-01 -1.628e-07 
  2.4000e-09  0.000e+00  8.500e-01  8.500e-01 -1.590e-07 
  2.4010e-09  0.000e+00  8.500e-01  8.500e-01 -1.552e-07 
  2.4020e-09  0.000e+00  8.500e-01  8.500e-01 -1.513e-07 
  2.4030e-09  0.000e+00  8.500e-01  8.500e-01 -1.475e-07 
  2.4040e-09  0.000e+00  8.500e-01  8.500e-01 -1.437e-07 
  2.4050e-09  0.000e+00  8.500e-01  8.500e-01 -1.399e-07 
  2.4060e-09  0.000e+00  8.500e-01  8.500e-01 -1.361e-07 
  2.4070e-09  0.000e+00  8.500e-01  8.500e-01 -1.323e-07 
  2.4080e-09  0.000e+00  8.500e-01  8.500e-01 -1.285e-07 
  2.4090e-09  0.000e+00  8.500e-01  8.500e-01 -1.247e-07 
  2.4100e-09  0.000e+00  8.500e-01  8.500e-01 -1.208e-07 
  2.4110e-09  0.000e+00  8.500e-01  8.500e-01 -1.170e-07 
  2.4120e-09  0.000e+00  8.500e-01  8.500e-01 -1.132e-07 
  2.4130e-09  0.000e+00  8.500e-01  8.500e-01 -1.094e-07 
  2.4140e-09  0.000e+00  8.500e-01  8.500e-01 -1.056e-07 
  2.4150e-09  0.000e+00  8.500e-01  8.500e-01 -1.018e-07 
  2.4160e-09  0.000e+00  8.500e-01  8.500e-01 -9.796e-08 
  2.4170e-09  0.000e+00  8.500e-01  8.500e-01 -9.415e-08 
  2.4180e-09  0.000e+00  8.500e-01  8.500e-01 -9.034e-08 
  2.4190e-09  0.000e+00  8.500e-01  8.500e-01 -8.652e-08 
  2.4200e-09  0.000e+00  8.500e-01  8.500e-01 -8.271e-08 
  2.4210e-09  0.000e+00  8.500e-01  8.500e-01 -7.890e-08 
  2.4220e-09  0.000e+00  8.500e-01  8.500e-01 -7.508e-08 
  2.4230e-09  0.000e+00  8.500e-01  8.500e-01 -7.127e-08 
  2.4240e-09  0.000e+00  8.500e-01  8.500e-01 -6.746e-08 
  2.4250e-09  0.000e+00  8.500e-01  8.500e-01 -6.364e-08 
  2.4260e-09  0.000e+00  8.500e-01  8.500e-01 -5.983e-08 
  2.4270e-09  0.000e+00  8.500e-01  8.500e-01 -5.602e-08 
  2.4280e-09  0.000e+00  8.500e-01  8.500e-01 -5.221e-08 
  2.4290e-09  0.000e+00  8.500e-01  8.500e-01 -4.839e-08 
  2.4300e-09  0.000e+00  8.500e-01  8.500e-01 -4.458e-08 
  2.4310e-09  0.000e+00  8.500e-01  8.500e-01 -4.077e-08 
  2.4320e-09  0.000e+00  8.500e-01  8.500e-01 -3.695e-08 
  2.4330e-09  0.000e+00  8.500e-01  8.500e-01 -3.314e-08 
  2.4340e-09  0.000e+00  8.500e-01  8.500e-01 -2.933e-08 
  2.4350e-09  0.000e+00  8.500e-01  8.500e-01 -2.551e-08 
  2.4360e-09  0.000e+00  8.500e-01  8.500e-01 -2.170e-08 
  2.4370e-09  0.000e+00  8.500e-01  8.500e-01 -1.789e-08 
  2.4380e-09  0.000e+00  8.500e-01  8.500e-01 -1.408e-08 
  2.4390e-09  0.000e+00  8.500e-01  8.500e-01 -1.026e-08 
  2.4400e-09  0.000e+00  8.500e-01  8.500e-01 -6.449e-09 
  2.4410e-09  0.000e+00  8.500e-01  8.500e-01 -2.636e-09 
  2.4420e-09  0.000e+00  8.500e-01  8.500e-01  1.177e-09 
  2.4430e-09  0.000e+00  8.500e-01  8.500e-01  4.990e-09 
  2.4440e-09  0.000e+00  8.500e-01  8.500e-01  8.803e-09 
  2.4450e-09  0.000e+00  8.500e-01  8.500e-01  1.262e-08 
  2.4460e-09  0.000e+00  8.500e-01  8.500e-01  1.643e-08 
  2.4470e-09  0.000e+00  8.500e-01  8.500e-01  2.024e-08 
  2.4480e-09  0.000e+00  8.500e-01  8.500e-01  2.405e-08 
  2.4490e-09  0.000e+00  8.500e-01  8.500e-01  2.787e-08 
  2.4500e-09  0.000e+00  8.500e-01  8.500e-01  3.168e-08 
  2.4510e-09  0.000e+00  8.500e-01  8.500e-01  3.549e-08 
  2.4520e-09  0.000e+00  8.500e-01  8.500e-01  3.931e-08 
  2.4530e-09  0.000e+00  8.500e-01  8.500e-01  4.312e-08 
  2.4540e-09  0.000e+00  8.500e-01  8.500e-01  4.693e-08 
  2.4550e-09  0.000e+00  8.500e-01  8.500e-01  5.075e-08 
  2.4560e-09  0.000e+00  8.500e-01  8.500e-01  5.456e-08 
  2.4570e-09  0.000e+00  8.500e-01  8.500e-01  5.837e-08 
  2.4580e-09  0.000e+00  8.500e-01  8.500e-01  6.218e-08 
  2.4590e-09  0.000e+00  8.500e-01  8.500e-01  6.600e-08 
  2.4600e-09  0.000e+00  8.500e-01  8.500e-01  6.981e-08 
  2.4610e-09  0.000e+00  8.500e-01  8.500e-01  7.362e-08 
  2.4620e-09  0.000e+00  8.500e-01  8.500e-01  7.744e-08 
  2.4630e-09  0.000e+00  8.500e-01  8.500e-01  8.125e-08 
  2.4640e-09  0.000e+00  8.500e-01  8.500e-01  8.506e-08 
  2.4650e-09  0.000e+00  8.500e-01  8.500e-01  8.888e-08 
  2.4660e-09  0.000e+00  8.500e-01  8.500e-01  9.269e-08 
  2.4670e-09  0.000e+00  8.500e-01  8.500e-01  9.650e-08 
  2.4680e-09  0.000e+00  8.500e-01  8.500e-01  1.003e-07 
  2.4690e-09  0.000e+00  8.500e-01  8.500e-01  1.041e-07 
  2.4700e-09  0.000e+00  8.500e-01  8.500e-01  1.079e-07 
  2.4710e-09  0.000e+00  8.500e-01  8.500e-01  1.118e-07 
  2.4720e-09  0.000e+00  8.500e-01  8.500e-01  1.156e-07 
  2.4730e-09  0.000e+00  8.500e-01  8.500e-01  1.194e-07 
  2.4740e-09  0.000e+00  8.500e-01  8.500e-01  1.232e-07 
  2.4750e-09  0.000e+00  8.500e-01  8.500e-01  1.270e-07 
  2.4760e-09  0.000e+00  8.500e-01  8.500e-01  1.308e-07 
  2.4770e-09  0.000e+00  8.500e-01  8.500e-01  1.346e-07 
  2.4780e-09  0.000e+00  8.500e-01  8.500e-01  1.384e-07 
  2.4790e-09  0.000e+00  8.500e-01  8.500e-01  1.423e-07 
  2.4800e-09  0.000e+00  8.500e-01  8.500e-01  1.461e-07 
  2.4810e-09  0.000e+00  8.500e-01  8.500e-01  1.499e-07 
  2.4820e-09  0.000e+00  8.500e-01  8.500e-01  1.537e-07 
  2.4830e-09  0.000e+00  8.500e-01  8.500e-01  1.575e-07 
  2.4840e-09  0.000e+00  8.500e-01  8.500e-01  1.613e-07 
  2.4850e-09  0.000e+00  8.500e-01  8.500e-01  1.651e-07 
  2.4860e-09  0.000e+00  8.500e-01  8.500e-01  1.689e-07 
  2.4870e-09  0.000e+00  8.500e-01  8.500e-01  1.728e-07 
  2.4880e-09  0.000e+00  8.500e-01  8.500e-01  1.766e-07 
  2.4890e-09  0.000e+00  8.500e-01  8.500e-01  1.804e-07 
  2.4900e-09  0.000e+00  8.500e-01  8.500e-01  1.842e-07 
  2.4910e-09  0.000e+00  8.500e-01  8.500e-01  1.880e-07 
  2.4920e-09  0.000e+00  8.500e-01  8.500e-01  1.918e-07 
  2.4930e-09  0.000e+00  8.500e-01  8.500e-01  1.956e-07 
  2.4940e-09  0.000e+00  8.500e-01  8.500e-01  1.995e-07 
  2.4950e-09  0.000e+00  8.500e-01  8.500e-01  2.033e-07 
  2.4960e-09  0.000e+00  8.500e-01  8.500e-01  2.071e-07 
  2.4970e-09  0.000e+00  8.500e-01  8.500e-01  2.109e-07 
  2.4980e-09  0.000e+00  8.500e-01  8.500e-01  2.147e-07 
  2.4990e-09  0.000e+00  8.500e-01  8.500e-01  2.185e-07 
  2.5000e-09  0.000e+00  8.500e-01  8.500e-01  2.223e-07 
y
 tpdr= 3.4201e-11  targ= 1.0592e-09   trig= 1.0250e-09
 tpdf= 3.8165e-11  targ= 5.6317e-10   trig= 5.2500e-10
 tr_a= 4.0000e-11  targ= 5.4500e-10   trig= 5.0500e-10
 tf_a= 4.0000e-11  targ= 1.0450e-09   trig= 1.0050e-09
 tr_y= 3.5761e-11  targ= 1.0783e-09   trig= 1.0426e-09
 tf_y= 4.1884e-11  targ= 5.8628e-10   trig= 5.4440e-10
 istat=-7.5569e-09  from= 5.0000e-11     to= 1.5000e-10
 ipeak=-1.0899e-04    at= 1.0500e-09
             from= 0.0000e+00    to= 2.5000e-09

          ***** job concluded
 ******  
 

 ****** job statistics summary tnom=  25.000 temp=  25.000 ******

  ****** Statistics of Ignored Elements ******
  Voltage Sources :       1

  ******  Circuit Statistics  ******
  # nodes       =      52 # elements   =     144
  # resistors   =      30 # capacitors =     107 # inductors   =       0
  # mutual_inds =       0 # vccs       =       0 # vcvs        =       0
  # cccs        =       0 # ccvs       =       0 # volt_srcs   =       3
  # curr_srcs   =       0 # diodes     =       0 # bjts        =       0
  # jfets       =       0 # mosfets    =       4 # U elements  =       0
  # T elements  =       0 # W elements =       0 # B elements  =       0
  # S elements  =       0 # P elements =       0 # va device   =       0
  # vector_srcs =       0 # N elements =       0


  ******  Runtime Statistics (seconds)  ******

  analysis           time    # points   tot. iter  conv.iter
  op point           0.00           1           4
  transient          0.00        2501         231          95 rev=         8
  readin             0.00
  errchk             0.00
  setup              0.00
  output             0.00


           peak memory used        514.27 megabytes
           total cpu time            0.02 seconds
           total elapsed time        0.02 seconds
           job started at     19:50:01 10/02/2025
           job ended   at     19:50:01 10/02/2025

>info:         ***** hspice job concluded
           job total runtime         0.20 seconds


 lic: Release hspice token(s) 
 lic: total license checkout elapse time:        0.04(s)
