$DATA1 SOURCE='PrimeSim HSPICE' VERSION='T-2022.06-3 linux64' PARAM_COUNT=1
.TITLE '** post-layout supply voltage characterization'
 supply           tpdr             tpdf             tr_a            
                  tf_a             tr_y             tf_y            
                  istat            ipeak            temper          
                  alter#          
  8.500e-01        2.734e-11        3.188e-11        8.000e-12      
                   8.000e-12        3.419e-11        4.050e-11      
                  -7.557e-09       -1.361e-04        2.500e+01      
                 1               
  9.000e-01        2.504e-11        3.009e-11        8.000e-12      
                   8.000e-12        3.394e-11        3.923e-11      
                  -9.119e-09       -1.491e-04        2.500e+01      
                 1               
  9.500e-01        2.385e-11        2.857e-11        8.000e-12      
                   8.000e-12        3.285e-11        3.730e-11      
                  -1.101e-08       -1.636e-04        2.500e+01      
                 1               
  1.000e+00        2.352e-11        2.716e-11        8.000e-12      
                   8.000e-12        3.112e-11        3.556e-11      
                  -1.329e-08       -1.803e-04        2.500e+01      
                 1               
  1.050e+00        2.198e-11        2.579e-11        8.000e-12      
                   8.000e-12        2.831e-11        3.398e-11      
                  -1.609e-08       -1.927e-04        2.500e+01      
                 1               
  1.100e+00        2.118e-11        2.488e-11        8.000e-12      
                   8.000e-12        2.736e-11        3.264e-11      
                  -1.954e-08       -2.071e-04        2.500e+01      
                 1               
