$DATA1 SOURCE='PrimeSim HSPICE' VERSION='T-2022.06-3 linux64' PARAM_COUNT=0
.TITLE 'inverter_load_test'
 tpdr_with_inv    temper           alter#          
  3.210e-11        2.500e+01       2               
