$DATA1 SOURCE='PrimeSim HSPICE' VERSION='T-2022.06-3 linux64' PARAM_COUNT=0
.TITLE '** power characterization for ha_accum @ 2 ghz'
 pavg             temper           alter#          
 -2.965e-04         25.0000        1               
