Using: /opt/synopsys/hspice/hspice/T-2022.06-3/hspice/linux64/hspice ring_oscillator_tau.sp
 ****** PrimeSim HSPICE -- T-2022.06-3 linux64 (Aug 04 2022 7739753) ******
  Copyright (c) 1986 - 2025 by Synopsys, Inc. All Rights Reserved.
  This software and the associated documentation are proprietary
  to Synopsys, Inc. This software may only be used in accordance
  with the terms and conditions of a written license agreement with
  Synopsys, Inc. All other use, reproduction, or distribution of
  this software is strictly prohibited.
  Input File: ring_oscillator_tau.sp                                            
  Command line options: /opt/synopsys/hspice/hspice/T-2022.06-3/hspice/linux64/hspice ring_oscillator_tau.sp
  Start time: Thu Nov  6 18:57:23 2025
 lic:  
 lic: FLEXlm: SDK_12.10 
 lic: USER:   azguro               HOSTNAME: vlsicad.ecs.umass.edu 
 lic: HOSTID: 13ac8554             PID:      3727180 
 lic: Using FLEXlm license file: 
 lic: 27020@vlsicad.ecs.umass.edu 
 lic: Checkout 1 hspice 
 lic: License/Maintenance for hspice will expire on 09-sep-2027/2025.06 
 lic: 1(in_use)/50(total) FLOATING license(s) on SERVER 27020@vlsicad.ecs.umass.edu 
 lic:   
  **warning** (ring_oscillator_tau.sp:10) Global net name "gnd" in subckt pin list. The pin will be connected to the local net. Recommend to not use global net names in subckt pin lists.
1****** PrimeSim HSPICE -- T-2022.06-3 linux64 (Aug 04 2022 7739753) ******
 ******  
 ** ring oscillator tau measurement

 ****** circuit name directory
 circuit number to circuit name directory
   number circuitname                     definition         multiplier
        0 main circuit
        1 xinv1.                          min_inv            1.00 
        2 xinv2.                          min_inv            1.00 
        3 xinv3.                          min_inv            1.00 
        4 xinv4.                          min_inv            1.00 
        5 xinv5.                          min_inv            1.00 
        6 xinv6.                          min_inv            1.00 
        7 xinv7.                          min_inv            1.00 
        8 xinv8.                          min_inv            1.00 
        9 xinv9.                          min_inv            1.00 
       10 xinv10.                         min_inv            1.00 
       11 xinv11.                         min_inv            1.00 
 ******  
 ** ring oscillator tau measurement

 ****** mos   model parameters tnom=  25.000 temp=  25.000 ******
 Model file: /opt/cadence/gpdk045/gpdk045_v_6_0/models/hspice/g45n1svt.inc
 Model line:            3
 Model Name: g45n1svt  
 BSIM4 Model (Level 54)
    MOBMOD = 0
    BINUNIT = 1
    PARAMCHK = 1
    CAPMOD = 2
    DIOMOD = 1
    RDSMOD = 0
    TRNQSMOD = 0
    ACNQSMOD = 0
    RBODYMOD = 1
    RGATEMOD = 1
    PERMOD = 1
    GEOMOD = 1
    RGEOMOD = 0
    FNOIMOD = 1
    TNOIMOD = 0
    IGCMOD = 1
    IGBMOD = 1
    STIMOD = 0
    VERSION =      4 
    TOXREF = 1.14e-09 
    TOXE = 1.14e-09 
    TOXP =  1e-09 
    TOXM = 1.14e-09 
    DTOX = 1.4e-10 
    EPSROX =    3.9 
    CDSC =      0 
    CDSCB =      0 
    CDSCD =      0 
    CIT =      0 
    NFACTOR =    2.1 
    XJ = 1.98e-08 
    VSAT = 1.23e+05 
    A0 =      1 
    AGS =      0 
    A1 =      0 
    A2 =      1 
    AT = 3.3e+04 
    KETA =   0.04 
    NSUB =  6e+16 
    NDEP = 3.4e+18 
    NSD =  2e+20 
    NGATE =  3e+20 
    GAMMA1 =      0 
    GAMMA2 =      0 
    VBX =      0 
    VBM =     -3 
    XT = 1.55e-07 
    K1 =    0.4 
    KT1 =  -0.11 
    KT1L =      0 
    KT2 =  0.022 
    K2 =      0 
    K3 =      0 
    K3B =      0 
    LPE0 =      0 
    LPEB =      0 
    DVTP0 =  1e-10 
    DVTP1 =    0.1 
    W0 = 2.5e-06 
    DVT0 =      1 
    DVT1 =      2 
    DVT2 =      0 
    DVT0W =      0 
    DVT1W =      0 
    DVT2W =      0 
    DROUT =    0.5 
    DSUB =    0.1 
    VTH0 = 0.4106 
    EU =   1.67 
    UA =  6e-10 
    UA1 = 4.31e-09 
    UB = 1.2e-18 
    UB1 = 7.61e-18 
    UC =      0 
    UC1 = -5.6e-11 
    U0 =  0.045 
    UTE =   -1.5 
    VOFF =  -0.13 
    VOFFL =      0 
    MINV =   0.05 
    FPROUT =    0.2 
    PDITS =   0.08 
    PDITSD =   0.23 
    PDITSL = 2.3e+06 
    DELTA =   0.01 
    RDSW =    155 
    RDSWMIN =      0 
    RDWMIN =      0 
    RSWMIN =      0 
    RDW =     80 
    RSW =     80 
    PRWG =      0 
    PRWB =      0 
    PRT =      0 
    ETA0 =  0.006 
    ETAB =      0 
    PCLM =   0.02 
    PDIBLC1 =  0.001 
    PDIBLC2 =  0.001 
    PDIBLCB = -0.005 
    PSCBE1 = 8.14e+08 
    PSCBE2 =  1e-07 
    PVAG =  1e-20 
    WR =      1 
    DWG =      0 
    DWB =      0 
    XW =      0 
    XWREF =      0 
    XL = -2e-08 
    XLREF = -2e-08 
    B0 =      0 
    B1 =      0 
    ALPHA0 =  0.074 
    ALPHA1 =  0.005 
    AGIDL = 0.0002 
    BGIDL = 2.1e+09 
    CGIDL = 0.0002 
    PHIN =      0 
    EGIDL =    0.8 
    AIGC =   0.02 
    BIGC = 0.0027 
    CIGC =  0.002 
    AIGSD =   0.02 
    BIGSD = 0.0027 
    CIGSD =  0.002 
    AIGBACC =  0.012 
    BIGBACC = 0.0028 
    CIGBACC =  0.002 
    AIGBINV =  0.014 
    BIGBINV =  0.004 
    CIGBINV =  0.004 
    NIGC =      1 
    NIGBINV =      3 
    NIGBACC =      1 
    NTOX =      1 
    EIGBINV =    1.1 
    PIGCD =      1 
    POXEDGE =      1 
    XRCRG1 =     12 
    TNOIA =    1.5 
    TNOIB =    3.5 
    NTNOI =      1 
    XRCRG2 =      5 
    BETA0 =     30 
    IJTHDFWD =   0.01 
    IJTHSFWD =   0.01 
    IJTHDREV =  0.001 
    IJTHSREV =  0.001 
    XJBVD =      1 
    XJBVS =      1 
    BVD =     10 
    BVS =     10 
    VFB =  -0.55 
    GBMIN =  1e-10 
    RBDB =     15 
    RBPB =      5 
    RBSB =     15 
    RBPS =     15 
    RBPD =     15 
    CGSL = 2.653e-10 
    CGDL = 2.653e-10 
    CKAPPAS =   0.03 
    CKAPPAD =   0.03 
    CF = 1.289e-10 
    CLC =  1e-07 
    CLE =    0.6 
    DWC =  5e-09 
    DLC = 3.75e-09 
    DLCIG = 3.75e-09 
    DWJ =      0 
    VFBCV =     -1 
    ACDE =      1 
    MOIN =     15 
    NOFF =    0.9 
    VOFFCV =   0.02 
    DMCG =      0 
    DMCI =      0 
    DMDG =      0 
    DMCGT =      0 
    XGW =      0 
    XGL =      0 
    RSHG =    0.4 
    NGCON =      1 
    TCJ =  0.001 
    TPB =  0.005 
    TCJSW =  0.001 
    TPBSW =  0.005 
    TCJSWG =  0.001 
    TPBSWG =  0.005 
    SK0 =      0 
    SK1 =      0 
    SK2 =      0 
    SL =  2e-06 
    SW =  2e-06 
    K =      0 
    TNOM =  300.1 
    CGSO = 1.1e-10 
    CGDO = 1.1e-10 
    CGBO = 2.56e-11 
    XPART =      0 
    RSH =      5 
    JSS = 0.0001 
    JSWS =  1e-11 
    JSWGS =  1e-10 
    PBS =      1 
    MJS =    0.5 
    PBSWS =      1 
    MJSWS =   0.33 
    CJS = 0.0005 
    CJSWS =  5e-10 
    NJS =      1 
    PBSWGS =      1 
    MJSWGS =   0.33 
    CJSWGS =  3e-10 
    XTIS =      3 
    JSD = 0.0001 
    JSWD =  1e-11 
    JSWGD =  1e-10 
    PBD =      1 
    MJD =    0.5 
    PBSWD =      1 
    MJSWD =   0.33 
    CJD = 0.0005 
    CJSWD =  5e-10 
    NJD =      1 
    PBSWGD =      1 
    MJSWGD =   0.33 
    CJSWGD =  5e-10 
    XTID =      3 
    LMLT =      1 
    WMLT =      1 
    LINT = 3.75e-09 
    LL =      0 
    LLC =      0 
    LLN =      1 
    LW =      0 
    LWC =      0 
    LWN =      1 
    LWL =      0 
    LWLC =      0 
    LMIN =      0 
    LMAX =      1 
    WINT =  5e-09 
    WL =      0 
    WLC =      0 
    WLN =      1 
    WW =      0 
    WWC =      0 
    WWN =      1 
    WWL =      0 
    WWLC =      0 
    WMIN =      0 
    WMAX =      1 
    NOIA = 6.25e+41 
    NOIB = 3.125e+26 
    NOIC = 8.75e+09 
    EM = 4.1e+07 
    EF =      1 
    AF =      1 
    KF =      0 
    TRS =      0 
    TRD =      0 
 Model file: /opt/cadence/gpdk045/gpdk045_v_6_0/models/hspice/g45p1svt.inc
 Model line:            3
 Model Name: g45p1svt  
 BSIM4 Model (Level 54)
    MOBMOD = 0
    BINUNIT = 1
    PARAMCHK = 1
    CAPMOD = 2
    DIOMOD = 1
    RDSMOD = 0
    TRNQSMOD = 0
    ACNQSMOD = 0
    RBODYMOD = 1
    RGATEMOD = 1
    PERMOD = 1
    GEOMOD = 1
    RGEOMOD = 0
    FNOIMOD = 1
    TNOIMOD = 0
    IGCMOD = 1
    IGBMOD = 1
    STIMOD = 0
    VERSION =      4 
    TOXREF = 1.3e-09 
    TOXE = 1.26e-09 
    TOXP =  1e-09 
    TOXM = 1.26e-09 
    DTOX = 2.6e-10 
    EPSROX =    3.9 
    CDSC =      0 
    CDSCB =      0 
    CDSCD =      0 
    CIT =      0 
    NFACTOR =   2.22 
    XJ = 1.98e-08 
    VSAT = 6.2e+04 
    A0 =      1 
    AGS =  1e-20 
    A1 =      0 
    A2 =      1 
    AT = 3.3e+04 
    KETA = -0.047 
    NSUB =  6e+16 
    NDEP = 2.44e+18 
    NSD =  2e+20 
    NGATE =  2e+20 
    GAMMA1 =      0 
    GAMMA2 =      0 
    VBX =      0 
    VBM =     -3 
    XT = 1.55e-07 
    K1 =    0.4 
    KT1 =  -0.11 
    KT1L =      0 
    KT2 =  0.022 
    K2 =  -0.01 
    K3 =      0 
    K3B =      0 
    LPE0 =      0 
    LPEB =      0 
    DVTP0 =  1e-11 
    DVTP1 =   0.05 
    W0 = 2.5e-06 
    DVT0 =      1 
    DVT1 =      2 
    DVT2 = -0.032 
    DVT0W =      0 
    DVT1W =      0 
    DVT2W =      0 
    DROUT =   0.56 
    DSUB =    0.1 
    VTH0 = -0.3842 
    EU =      1 
    UA =  2e-09 
    UA1 = 4.31e-09 
    UB =  5e-19 
    UB1 = 7.61e-18 
    UC =      0 
    UC1 = -5.6e-11 
    U0 =   0.02 
    UTE =   -1.5 
    VOFF = -0.126 
    VOFFL =      0 
    MINV =   0.05 
    FPROUT =    0.2 
    PDITS =   0.08 
    PDITSD =   0.23 
    PDITSL = 2.3e+06 
    DELTA =   0.01 
    RDSW =    155 
    RDSWMIN =      0 
    RDWMIN =      0 
    RSWMIN =      0 
    RDW =     75 
    RSW =     75 
    PRWG =      0 
    PRWB =      0 
    PRT =      0 
    ETA0 = 0.0055 
    ETAB =      0 
    PCLM =   0.12 
    PDIBLC1 =  0.001 
    PDIBLC2 =  0.001 
    PDIBLCB = 3.4e-08 
    PSCBE1 = 8.14e+08 
    PSCBE2 = 9.58e-07 
    PVAG =  1e-20 
    WR =      1 
    DWG =      0 
    DWB =      0 
    XW =      0 
    XWREF =      0 
    XL = -2e-08 
    XLREF = -2e-08 
    B0 =      0 
    B1 =      0 
    ALPHA0 =  0.074 
    ALPHA1 =  0.005 
    AGIDL = 0.0002 
    BGIDL = 2.1e+09 
    CGIDL = 0.0002 
    PHIN =      0 
    EGIDL =    0.8 
    AIGC = 0.01069 
    BIGC = 0.001261 
    CIGC = 0.0008 
    AIGSD = 0.01069 
    BIGSD = 0.001261 
    CIGSD = 0.0008 
    AIGBACC =  0.012 
    BIGBACC = 0.0028 
    CIGBACC =  0.002 
    AIGBINV =  0.014 
    BIGBINV =  0.004 
    CIGBINV =  0.004 
    NIGC =      1 
    NIGBINV =      3 
    NIGBACC =      1 
    NTOX =      1 
    EIGBINV =    1.1 
    PIGCD =      1 
    POXEDGE =      1 
    XRCRG1 =     12 
    TNOIA =    1.5 
    TNOIB =    3.5 
    NTNOI =      1 
    XRCRG2 =      5 
    BETA0 =     30 
    IJTHDFWD =   0.01 
    IJTHSFWD =   0.01 
    IJTHDREV =  0.001 
    IJTHSREV =  0.001 
    XJBVD =      1 
    XJBVS =      1 
    BVD =     10 
    BVS =     10 
    VFB =   0.55 
    GBMIN =  1e-10 
    RBDB =     15 
    RBPB =      5 
    RBSB =     15 
    RBPS =     15 
    RBPD =     15 
    CGSL = 2.653e-10 
    CGDL = 2.653e-10 
    CKAPPAS =   0.03 
    CKAPPAD =   0.03 
    CF = 1.267e-10 
    CLC =  1e-07 
    CLE =    0.6 
    DWC =  5e-09 
    DLC = 3.75e-09 
    DLCIG = 3.75e-09 
    DWJ =      0 
    VFBCV =     -1 
    ACDE =      1 
    MOIN =     15 
    NOFF =    0.9 
    VOFFCV =   0.02 
    DMCG =      0 
    DMCI =      0 
    DMDG =      0 
    DMCGT =      0 
    XGW =      0 
    XGL =      0 
    RSHG =    0.4 
    NGCON =      1 
    TCJ =  0.001 
    TPB =  0.005 
    TCJSW =  0.001 
    TPBSW =  0.005 
    TCJSWG =  0.001 
    TPBSWG =  0.005 
    SK0 =      0 
    SK1 =      0 
    SK2 =      0 
    SL =  2e-06 
    SW =  2e-06 
    K =      0 
    TNOM =  300.1 
    CGSO = 1.1e-10 
    CGDO = 1.1e-10 
    CGBO = 2.56e-11 
    XPART =      0 
    RSH =      5 
    JSS = 0.0001 
    JSWS =  1e-11 
    JSWGS =  1e-10 
    PBS =      1 
    MJS =    0.5 
    PBSWS =      1 
    MJSWS =   0.33 
    CJS = 0.0005 
    CJSWS =  5e-10 
    NJS =      1 
    PBSWGS =      1 
    MJSWGS =   0.33 
    CJSWGS =  3e-10 
    XTIS =      3 
    JSD = 0.0001 
    JSWD =  1e-11 
    JSWGD =  1e-10 
    PBD =      1 
    MJD =    0.5 
    PBSWD =      1 
    MJSWD =   0.33 
    CJD = 0.0005 
    CJSWD =  5e-10 
    NJD =      1 
    PBSWGD =      1 
    MJSWGD =   0.33 
    CJSWGD =  5e-10 
    XTID =      3 
    LMLT =      1 
    WMLT =      1 
    LINT = 3.75e-09 
    LL =      0 
    LLC =      0 
    LLN =      1 
    LW =      0 
    LWC =      0 
    LWN =      1 
    LWL =      0 
    LWLC =      0 
    LMIN =      0 
    LMAX =      1 
    WINT =  5e-09 
    WL =      0 
    WLC =      0 
    WLN =      1 
    WW =      0 
    WWC =      0 
    WWN =      1 
    WWL =      0 
    WWLC =      0 
    WMIN =      0 
    WMAX =      1 
    NOIA = 6.188e+40 
    NOIB = 1.5e+25 
    NOIC = 8.75e+09 
    EM = 4.1e+07 
    EF =      1 
    AF =      1 
    KF =      0 
    TRS =      0 
    TRD =      0 
  **warning** (g45n1svt:xinv1.mn1 (ring_oscillator_tau.sp:12)) Warning:  Acde = 0.276941 may be too small in BSIM4 model with w=1.2e-07 l=4.5e-08.
  
      
 **info** set option symb=1 internally to help for convergence.
 *****************************************************************
 ******  option summary
 ******
 runlvl  = 3         bypass  = 2.0000    
  Opening plot unit= 15
 file=ring_oscillator_tau.pa0

 **info** dc convergence successful at Newton-Raphson method 
 ******  
 ** ring oscillator tau measurement

 ****** operating point information tnom=  25.000 temp=  25.000 ******
 ****** operating point status is voltage   simulation time is     0.     
     node    =voltage       node    =voltage       node    =voltage

 + 0:n1      =   2.2090u  0:n10     =   1.1000   0:n11     =  60.3950u
 + 0:n2      =   1.1000   0:n3      =  58.3030u  0:n4      =   1.1000 
 + 0:n5      =  58.3232u  0:n6      =   1.1000   0:n7      =  58.3232u
 + 0:n8      =   1.1000   0:n9      =  58.3232u  0:vdd     =   1.1000 

 ******
 ** ring oscillator tau measurement

 ****** transient analysis tnom=  25.000 temp=  25.000 ******
x

 time         voltage    voltage    voltage   
             n1         n6         n11        
    0.          2.2090u    1.1000    60.3950u 
  100.00000f   28.6560m    1.1000     3.0804m 
  200.00000f   57.3098m    1.1000     6.1004m 
  300.00000f   85.9636m    1.1000     9.1204m 
  400.00000f  114.6175m    1.1000    12.1404m 
  500.00000f  143.2713m    1.1000    15.1604m 
  600.00000f  171.9251m    1.1000    18.1804m 
  700.00000f  200.5789m    1.1000    21.2004m 
  800.00000f  229.2327m    1.1000    24.2204m 
  900.00000f  257.8865m    1.1000    27.2404m 
    1.00000p  286.5403m    1.1000    30.2604m 
    1.10000p  309.6096m    1.1000    31.5591m 
    1.20000p  332.6789m    1.1000    32.8578m 
    1.30000p  355.7481m    1.1000    34.1565m 
    1.40000p  378.8174m    1.1000    35.4553m 
    1.50000p  401.8866m    1.1000    36.7540m 
    1.60000p  424.9559m    1.1000    38.0527m 
    1.70000p  448.0251m    1.1000    39.3514m 
    1.80000p  471.0944m    1.1000    40.6501m 
    1.90000p  494.1637m    1.1000    41.9488m 
    2.00000p  517.2329m    1.1000    43.2475m 
    2.10000p  539.5003m    1.1000    44.2964m 
    2.20000p  561.7677m    1.1000    45.3454m 
    2.30000p  584.0351m    1.1000    46.3943m 
    2.40000p  605.0483m    1.1000    47.1227m 
    2.50000p  624.5256m    1.1000    47.4586m 
    2.60000p  644.0028m    1.1000    47.7945m 
    2.70000p  663.4801m    1.1000    48.1304m 
    2.80000p  682.9573m    1.1000    48.4663m 
    2.90000p  702.4345m    1.1000    48.8023m 
    3.00000p  721.9118m    1.1000    49.1382m 
    3.10000p  741.3890m    1.1000    49.4741m 
    3.20000p  760.8663m    1.1000    49.8100m 
    3.30000p  780.3435m    1.0999    50.1459m 
    3.40000p  799.8208m    1.0999    50.4818m 
    3.50000p  818.6772m    1.0999    50.7263m 
    3.60000p  831.0850m    1.0999    50.0204m 
    3.70000p  843.4928m    1.1000    49.3146m 
    3.80000p  855.9006m    1.1000    48.6087m 
    3.90000p  868.3084m    1.1000    47.9029m 
    4.00000p  880.7162m    1.1000    47.1971m 
    4.10000p  893.1240m    1.1000    46.4912m 
    4.20000p  905.5318m    1.1000    45.7854m 
    4.30000p  917.9396m    1.1000    45.0796m 
    4.40000p  930.3474m    1.1000    44.3737m 
    4.50000p  942.7552m    1.1000    43.6679m 
    4.60000p  955.1630m    1.1000    42.9621m 
    4.70000p  962.1401m    1.1000    41.9593m 
    4.80000p  967.4815m    1.1000    40.8671m 
    4.90000p  972.8229m    1.1000    39.7748m 
    5.00000p  978.1643m    1.1000    38.6826m 
    5.10000p  983.5056m    1.1000    37.5904m 
    5.20000p  988.8470m    1.1001    36.4982m 
    5.30000p  994.1884m    1.1001    35.4060m 
    5.40000p  999.5298m    1.1001    34.3138m 
    5.50000p    1.0049     1.1001    33.2216m 
    5.60000p    1.0102     1.1001    32.1293m 
    5.70000p    1.0156     1.1001    31.0371m 
    5.80000p    1.0209     1.1001    29.9449m 
    5.90000p    1.0262     1.1001    28.8527m 
    6.00000p    1.0316     1.1001    27.7605m 
    6.10000p    1.0369     1.1002    26.6683m 
    6.20000p    1.0390     1.1002    25.7509m 
    6.30000p    1.0408     1.1002    24.8474m 
    6.40000p    1.0426     1.1002    23.9440m 
    6.50000p    1.0444     1.1002    23.0406m 
    6.60000p    1.0462     1.1002    22.1372m 
    6.70000p    1.0480     1.1002    21.2338m 
    6.80000p    1.0497     1.1002    20.3304m 
    6.90000p    1.0515     1.1002    19.4269m 
    7.00000p    1.0533     1.1002    18.5235m 
    7.10000p    1.0551     1.1003    17.6201m 
    7.20000p    1.0569     1.1003    16.7167m 
    7.30000p    1.0587     1.1003    15.8133m 
    7.40000p    1.0605     1.1003    14.9099m 
    7.50000p    1.0617     1.1003    14.3006m 
    7.60000p    1.0626     1.1003    13.8220m 
    7.70000p    1.0635     1.1003    13.3434m 
    7.80000p    1.0644     1.1002    12.8648m 
    7.90000p    1.0653     1.1002    12.3862m 
    8.00000p    1.0662     1.1002    11.9077m 
    8.10000p    1.0671     1.1002    11.4291m 
    8.20000p    1.0681     1.1002    10.9505m 
    8.30000p    1.0690     1.1002    10.4719m 
    8.40000p    1.0699     1.1002     9.9933m 
    8.50000p    1.0708     1.1002     9.5148m 
    8.60000p    1.0717     1.1002     9.0362m 
    8.70000p    1.0726     1.1001     8.5576m 
    8.80000p    1.0735     1.1001     8.0790m 
    8.90000p    1.0744     1.1001     7.6005m 
    9.00000p    1.0753     1.1001     7.1440m 
    9.10000p    1.0760     1.1000     6.9556m 
    9.20000p    1.0766     1.1000     6.7673m 
    9.30000p    1.0773     1.0999     6.5789m 
    9.40000p    1.0780     1.0999     6.3905m 
    9.50000p    1.0787     1.0998     6.2021m 
    9.60000p    1.0793     1.0998     6.0137m 
    9.70000p    1.0800     1.0997     5.8254m 
    9.80000p    1.0807     1.0997     5.6370m 
    9.90000p    1.0814     1.0996     5.4486m 
   10.00000p    1.0820     1.0996     5.2602m 
   10.10000p    1.0827     1.0995     5.0718m 
   10.20000p    1.0834     1.0994     4.8835m 
   10.30000p    1.0840     1.0994     4.6951m 
   10.40000p    1.0847     1.0993     4.5067m 
   10.50000p    1.0854     1.0993     4.3183m 
   10.60000p    1.0861     1.0992     4.1299m 
   10.70000p    1.0867     1.0992     3.9416m 
   10.80000p    1.0872     1.0991     3.8129m 
   10.90000p    1.0876     1.0990     3.7140m 
   11.00000p    1.0880     1.0989     3.6150m 
   11.10000p    1.0884     1.0988     3.5161m 
   11.20000p    1.0889     1.0986     3.4171m 
   11.30000p    1.0893     1.0985     3.3182m 
   11.40000p    1.0897     1.0984     3.2192m 
   11.50000p    1.0901     1.0983     3.1203m 
   11.60000p    1.0905     1.0982     3.0213m 
   11.70000p    1.0909     1.0981     2.9223m 
   11.80000p    1.0913     1.0980     2.8234m 
   11.90000p    1.0917     1.0979     2.7244m 
   12.00000p    1.0921     1.0978     2.6255m 
   12.10000p    1.0925     1.0977     2.5265m 
   12.20000p    1.0929     1.0976     2.4276m 
   12.30000p    1.0933     1.0974     2.3286m 
   12.40000p    1.0935     1.0976     2.2549m 
   12.50000p    1.0936     1.0977     2.1836m 
   12.60000p    1.0938     1.0979     2.1123m 
   12.70000p    1.0940     1.0981     2.0410m 
   12.80000p    1.0941     1.0982     1.9697m 
   12.90000p    1.0943     1.0984     1.8984m 
   13.00000p    1.0944     1.0986     1.8271m 
   13.10000p    1.0946     1.0987     1.7558m 
   13.20000p    1.0947     1.0989     1.6845m 
   13.30000p    1.0949     1.0990     1.6132m 
   13.40000p    1.0950     1.0992     1.5419m 
   13.50000p    1.0952     1.0994     1.4706m 
   13.60000p    1.0953     1.0995     1.3993m 
   13.70000p    1.0955     1.0997     1.3280m 
   13.80000p    1.0956     1.0999     1.2567m 
   13.90000p    1.0958     1.1000     1.1855m 
   14.00000p    1.0959     1.1005     1.1294m 
   14.10000p    1.0960     1.1013     1.0939m 
   14.20000p    1.0961     1.1021     1.0584m 
   14.30000p    1.0961     1.1029     1.0229m 
   14.40000p    1.0962     1.1037   987.3615u 
   14.50000p    1.0963     1.1046   951.8618u 
   14.60000p    1.0964     1.1054   916.3620u 
   14.70000p    1.0964     1.1062   880.8623u 
   14.80000p    1.0965     1.1070   845.3625u 
   14.90000p    1.0966     1.1079   809.8628u 
   15.00000p    1.0967     1.1087   774.3630u 
   15.10000p    1.0968     1.1095   738.8633u 
   15.20000p    1.0968     1.1103   703.3635u 
   15.30000p    1.0969     1.1111   667.8638u 
   15.40000p    1.0970     1.1120   635.9630u 
   15.50000p    1.0971     1.1134   625.1670u 
   15.60000p    1.0971     1.1147   614.3710u 
   15.70000p    1.0972     1.1161   603.5749u 
   15.80000p    1.0973     1.1175   592.7789u 
   15.90000p    1.0974     1.1188   581.9829u 
   16.00000p    1.0975     1.1202   571.1868u 
   16.10000p    1.0975     1.1215   560.3908u 
   16.20000p    1.0976     1.1229   549.5948u 
   16.30000p    1.0977     1.1242   538.7987u 
   16.40000p    1.0978     1.1256   528.0027u 
   16.50000p    1.0979     1.1270   517.2067u 
   16.60000p    1.0979     1.1283   506.4106u 
   16.70000p    1.0980     1.1297   495.6146u 
   16.80000p    1.0981     1.1310   484.8186u 
   16.90000p    1.0982     1.1324   474.0225u 
   17.00000p    1.0983     1.1331   464.1101u 
   17.10000p    1.0983     1.1326   455.7993u 
   17.20000p    1.0984     1.1320   447.4885u 
   17.30000p    1.0984     1.1315   439.1778u 
   17.40000p    1.0985     1.1310   430.8670u 
   17.50000p    1.0986     1.1305   422.5562u 
   17.60000p    1.0986     1.1300   414.2454u 
   17.70000p    1.0987     1.1295   405.9346u 
   17.80000p    1.0987     1.1289   397.6239u 
   17.90000p    1.0988     1.1284   389.3131u 
   18.00000p    1.0989     1.1279   381.0023u 
   18.10000p    1.0989     1.1274   372.6915u 
   18.20000p    1.0990     1.1269   364.3807u 
   18.30000p    1.0990     1.1264   356.0700u 
   18.40000p    1.0991     1.1259   347.7592u 
   18.50000p    1.0992     1.1253   339.4484u 
   18.60000p    1.0992     1.1245   331.1581u 
   18.70000p    1.0992     1.1210   323.0421u 
   18.80000p    1.0993     1.1174   314.9261u 
   18.90000p    1.0993     1.1139   306.8101u 
   19.00000p    1.0993     1.1101   299.1300u 
   19.10000p    1.0993     1.1056   292.6166u 
   19.20000p    1.0994     1.1012   286.1032u 
   19.30000p    1.0994     1.0968   279.5897u 
   19.40000p    1.0994     1.0923   273.0763u 
   19.50000p    1.0994     1.0831   266.6086u 
   19.60000p    1.0995     1.0732   260.1480u 
   19.70000p    1.0995     1.0633   253.6873u 
   19.80000p    1.0995     1.0534   247.2266u 
   19.90000p    1.0995     1.0435   240.7660u 
   20.00000p    1.0995     1.0336   234.3053u 
   20.10000p    1.0996     1.0237   227.8446u 
   20.20000p    1.0996     1.0138   221.3839u 
   20.30000p    1.0996     1.0039   214.9233u 
   20.40000p    1.0996   994.0050m  208.4626u 
   20.50000p    1.0996   984.1015m  202.0019u 
   20.60000p    1.0996   974.1980m  195.5412u 
   20.70000p    1.0997   964.2944m  189.0806u 
   20.80000p    1.0997   954.3909m  182.6199u 
   20.90000p    1.0997   940.4506m  178.7329u 
   21.00000p    1.0997   925.3317m  175.5973u 
   21.10000p    1.0997   910.2128m  172.4617u 
   21.20000p    1.0997   895.0939m  169.3261u 
   21.30000p    1.0997   879.9750m  166.1905u 
   21.40000p    1.0997   864.8561m  163.0549u 
   21.50000p    1.0997   849.7373m  159.9193u 
   21.60000p    1.0997   834.6184m  156.7837u 
   21.70000p    1.0998   819.4995m  153.6481u 
   21.80000p    1.0998   804.3806m  150.5125u 
   21.90000p    1.0998   789.2617m  147.3769u 
   22.00000p    1.0998   774.0505m  144.3829u 
   22.10000p    1.0998   758.1688m  142.4178u 
   22.20000p    1.0998   742.2871m  140.4528u 
   22.30000p    1.0998   726.4055m  138.4878u 
   22.40000p    1.0998   710.5238m  136.5228u 
   22.50000p    1.0998   694.6421m  134.5578u 
   22.60000p    1.0998   678.7604m  132.5928u 
   22.70000p    1.0998   662.8787m  130.6278u 
   22.80000p    1.0998   646.9970m  128.6628u 
   22.90000p    1.0998   631.1153m  126.6977u 
   23.00000p    1.0998   615.2336m  124.7327u 
   23.10000p    1.0998   599.3519m  122.7677u 
   23.20000p    1.0999   583.4702m  120.8027u 
   23.30000p    1.0999   567.5885m  118.8377u 
   23.40000p    1.0999   551.7068m  116.8727u 
   23.50000p    1.0999   536.0577m  115.0632u 
   23.60000p    1.0999   521.5866m  114.0413u 
   23.70000p    1.0999   507.1155m  113.0193u 
   23.80000p    1.0999   492.6444m  111.9974u 
   23.90000p    1.0999   478.1733m  110.9755u 
   24.00000p    1.0999   463.7022m  109.9536u 
   24.10000p    1.0999   449.2311m  108.9316u 
   24.20000p    1.0999   434.7600m  107.9097u 
   24.30000p    1.0999   420.2889m  106.8878u 
   24.40000p    1.0999   405.8178m  105.8659u 
   24.50000p    1.0999   391.3467m  104.8439u 
   24.60000p    1.0999   376.8756m  103.8220u 
   24.70000p    1.0999   362.4045m  102.8001u 
   24.80000p    1.0999   347.9334m  101.7782u 
   24.90000p    1.0999   333.4622m  100.7562u 
   25.00000p    1.0999   322.9185m   96.0858u 
   25.10000p    1.0999   313.4408m   90.4248u 
   25.20000p    1.0999   303.9632m   84.7638u 
   25.30000p    1.0999   294.4855m   79.1029u 
   25.40000p    1.0999   285.0079m   73.4419u 
   25.50000p    1.0999   275.5302m   67.7809u 
   25.60000p    1.0999   266.0526m   62.1200u 
   25.70000p    1.0999   256.5749m   56.4590u 
   25.80000p    1.0999   247.0973m   50.7981u 
   25.90000p    1.0999   237.6196m   45.1371u 
   26.00000p    1.0999   228.1420m   39.4761u 
   26.10000p    1.0999   218.6644m   33.8152u 
   26.20000p    1.0999   209.1867m   28.1542u 
   26.30000p    1.0999   199.7091m   22.4932u 
   26.40000p    1.0999   190.2314m   16.8323u 
   26.50000p    1.0999   180.7538m   11.1713u 
   26.60000p    1.0999   171.2761m    5.5103u 
   26.70000p    1.0999   166.6502m   -2.1429u 
   26.80000p    1.0999   162.1894m   -9.8638u 
   26.90000p    1.0999   157.7285m  -17.5848u 
   27.00000p    1.0999   153.2676m  -25.3058u 
   27.10000p    1.0999   148.8067m  -33.0268u 
   27.20000p    1.0999   144.3459m  -40.7478u 
   27.30000p    1.0999   139.8850m  -48.4687u 
   27.40000p    1.0999   135.4241m  -56.1897u 
   27.50000p    1.1000   130.9632m  -63.9107u 
   27.60000p    1.1000   126.5023m  -71.6317u 
   27.70000p    1.1000   122.0415m  -79.3526u 
   27.80000p    1.1000   117.5806m  -87.0736u 
   27.90000p    1.1000   113.1197m  -94.7946u 
   28.00000p    1.1000   108.6588m -102.5156u 
   28.10000p    1.1000   104.1980m -110.2366u 
   28.20000p    1.1000    99.7371m -117.9575u 
   28.30000p    1.1000    95.5218m -124.4590u 
   28.40000p    1.1000    93.2381m -121.3685u 
   28.50000p    1.1000    90.9544m -118.2781u 
   28.60000p    1.1000    88.6707m -115.1877u 
   28.70000p    1.1000    86.3871m -112.0972u 
   28.80000p    1.1000    84.1034m -109.0068u 
   28.90000p    1.1000    81.8197m -105.9164u 
   29.00000p    1.1000    79.5360m -102.8259u 
   29.10000p    1.1000    77.2523m  -99.7355u 
   29.20000p    1.1000    74.9686m  -96.6451u 
   29.30000p    1.1000    72.6849m  -93.5546u 
   29.40000p    1.1000    70.4013m  -90.4642u 
   29.50000p    1.1000    68.1176m  -87.3738u 
   29.60000p    1.1000    65.8339m  -84.2833u 
   29.70000p    1.1000    63.5502m  -81.1929u 
   29.80000p    1.1000    61.2665m  -78.1025u 
   29.90000p    1.1000    58.9828m  -75.0120u 
   30.00000p    1.1000    57.2430m  -15.4027u 
   30.10000p    1.1000    55.5309m   47.0923u 
   30.20000p    1.1000    53.8189m  109.5873u 
   30.30000p    1.1000    52.1068m  172.0823u 
   30.40000p    1.1000    50.3948m  234.5773u 
   30.50000p    1.1000    48.6827m  297.0723u 
   30.60000p    1.1001    46.9707m  359.5673u 
   30.70000p    1.1001    45.2586m  422.0623u 
   30.80000p    1.1001    43.5465m  484.5574u 
   30.90000p    1.1001    41.8345m  547.0524u 
   31.00000p    1.1001    40.1224m  609.5474u 
   31.10000p    1.1001    38.4104m  672.0424u 
   31.20000p    1.1001    36.6983m  734.5374u 
   31.30000p    1.1001    34.9863m  797.0324u 
   31.40000p    1.1001    33.2742m  859.5274u 
   31.50000p    1.1002    31.8455m  951.0404u 
   31.60000p    1.1002    30.5354m    1.0547m 
   31.70000p    1.1002    29.2252m    1.1583m 
   31.80000p    1.1002    27.9622m    1.2670m 
   31.90000p    1.1002    26.7604m    1.3821m 
   32.00000p    1.1002    25.5585m    1.4972m 
   32.10000p    1.1002    24.3566m    1.6123m 
   32.20000p    1.1002    23.2700m    1.7250m 
   32.30000p    1.1002    22.4349m    1.8325m 
   32.40000p    1.1002    21.5998m    1.9400m 
   32.50000p    1.1002    20.7647m    2.0475m 
   32.60000p    1.1002    19.9296m    2.1549m 
   32.70000p    1.1002    19.0945m    2.2624m 
   32.80000p    1.1003    18.2594m    2.3699m 
   32.90000p    1.1003    17.4243m    2.4774m 
   33.00000p    1.1003    16.5892m    2.5849m 
   33.10000p    1.1003    15.7542m    2.6923m 
   33.20000p    1.1003    14.9191m    2.7998m 
   33.30000p    1.1003    14.0840m    2.9073m 
   33.40000p    1.1003    13.2489m    3.0148m 
   33.50000p    1.1003    12.4680m    3.0939m 
   33.60000p    1.1002    12.0600m    2.9783m 
   33.70000p    1.1002    11.6520m    2.8627m 
   33.80000p    1.1002    11.2441m    2.7470m 
   33.90000p    1.1001    10.8361m    2.6314m 
   34.00000p    1.1001    10.4281m    2.5158m 
   34.10000p    1.1000    10.0201m    2.4001m 
   34.20000p    1.1000     9.6121m    2.2845m 
   34.30000p    1.1000     9.2041m    2.1689m 
   34.40000p    1.0999     8.7961m    2.0532m 
   34.50000p    1.0999     8.3882m    1.9376m 
   34.60000p    1.0999     7.9802m    1.8219m 
   34.70000p    1.0998     7.5722m    1.7063m 
   34.80000p    1.0998     7.1642m    1.5907m 
   34.90000p    1.0997     6.8745m    1.2225m 
   35.00000p    1.0996     6.6776m  656.3045u 
   35.10000p    1.0996     6.4807m   90.0591u 
   35.20000p    1.0995     6.2838m -476.1863u 
   35.30000p    1.0994     6.0869m   -1.0424m 
   35.40000p    1.0993     5.8900m   -1.6087m 
   35.50000p    1.0993     5.6930m   -2.1749m 
   35.60000p    1.0992     5.4961m   -2.7412m 
   35.70000p    1.0991     5.2992m   -3.3074m 
   35.80000p    1.0990     5.1023m   -3.8737m 
   35.90000p    1.0990     4.9054m   -4.4399m 
   36.00000p    1.0989     4.7085m   -5.0061m 
   36.10000p    1.0988     4.5116m   -5.5724m 
   36.20000p    1.0988     4.3147m   -6.1386m 
   36.30000p    1.0987     4.1178m   -6.7049m 
   36.40000p    1.0986     3.9209m   -7.2711m 
   36.50000p    1.0985     3.8067m   -8.2863m 
   36.60000p    1.0984     3.6942m   -9.3103m 
   36.70000p    1.0984     3.5817m  -10.3344m 
   36.80000p    1.0983     3.4691m  -11.3584m 
   36.90000p    1.0982     3.3566m  -12.3825m 
   37.00000p    1.0981     3.2441m  -13.4065m 
   37.10000p    1.0980     3.1315m  -14.4306m 
   37.20000p    1.0980     3.0190m  -15.4546m 
   37.30000p    1.0979     2.9065m  -16.4787m 
   37.40000p    1.0978     2.7939m  -17.5027m 
   37.50000p    1.0977     2.6814m  -18.5267m 
   37.60000p    1.0976     2.5689m  -19.5508m 
   37.70000p    1.0976     2.4564m  -20.5748m 
   37.80000p    1.0975     2.3438m  -21.5989m 
   37.90000p    1.0974     2.2313m  -22.6229m 
   38.00000p    1.0974     2.1241m  -23.3694m 
   38.10000p    1.0977     2.0540m  -22.1672m 
   38.20000p    1.0981     1.9839m  -20.9650m 
   38.30000p    1.0984     1.9138m  -19.7628m 
   38.40000p    1.0987     1.8437m  -18.5607m 
   38.50000p    1.0991     1.7736m  -17.3585m 
   38.60000p    1.0994     1.7035m  -16.1563m 
   38.70000p    1.0998     1.6335m  -14.9541m 
   38.80000p    1.1001     1.5634m  -13.7520m 
   38.90000p    1.1005     1.4933m  -12.5498m 
   39.00000p    1.1008     1.4232m  -11.3476m 
   39.10000p    1.1011     1.3531m  -10.1454m 
   39.20000p    1.1015     1.2830m   -8.9433m 
   39.30000p    1.1018     1.2129m   -7.7411m 
   39.40000p    1.1022     1.1429m   -6.5389m 
   39.50000p    1.1025     1.0728m   -5.3367m 
   39.60000p    1.1030     1.0095m   -3.1407m 
   39.70000p    1.1041   983.4175u    4.4867m 
   39.80000p    1.1053   957.3344u   12.1142m 
   39.90000p    1.1064   931.2512u   19.7416m 
   40.00000p    1.1076   905.1681u   27.3691m 
   40.10000p    1.1087   879.0849u   34.9966m 
   40.20000p    1.1099   853.0018u   42.6240m 
   40.30000p    1.1110   826.9186u   50.2515m 
   40.40000p    1.1122   800.8355u   57.8789m 
   40.50000p    1.1133   774.7523u   65.5064m 
   40.60000p    1.1145   748.6692u   73.1338m 
   40.70000p    1.1157   722.5860u   80.7613m 
   40.80000p    1.1168   696.5029u   88.3887m 
   40.90000p    1.1180   670.4197u   96.0162m 
   41.00000p    1.1191   644.3365u  103.6437m 
   41.10000p    1.1203   618.2534u  111.2711m 
   41.20000p    1.1213   600.1116u  122.4626m 
   41.30000p    1.1222   589.2435u  136.9186m 
   41.40000p    1.1232   578.3755u  151.3746m 
   41.50000p    1.1241   567.5075u  165.8306m 
   41.60000p    1.1250   556.6395u  180.2865m 
   41.70000p    1.1260   545.7714u  194.7425m 
   41.80000p    1.1269   534.9034u  209.1985m 
   41.90000p    1.1278   524.0354u  223.6545m 
   42.00000p    1.1288   513.1674u  238.1105m 
   42.10000p    1.1297   502.2993u  252.5664m 
   42.20000p    1.1307   491.4313u  267.0224m 
   42.30000p    1.1316   480.5633u  281.4784m 
   42.40000p    1.1325   469.6953u  295.9344m 
   42.50000p    1.1335   458.8272u  310.3904m 
   42.60000p    1.1344   447.9592u  324.8464m 
   42.70000p    1.1353   437.0912u  339.3023m 
   42.80000p    1.1345   427.1442u  355.2202m 
   42.90000p    1.1323   417.9647u  372.3564m 
   43.00000p    1.1301   408.7852u  389.4925m 
   43.10000p    1.1279   399.6058u  406.6287m 
   43.20000p    1.1257   390.4263u  423.7648m 
   43.30000p    1.1234   381.2468u  440.9009m 
   43.40000p    1.1212   372.0673u  458.0371m 
   43.50000p    1.1190   362.8878u  475.1732m 
   43.60000p    1.1168   353.7083u  492.3093m 
   43.70000p    1.1146   344.5288u  509.4455m 
   43.80000p    1.1123   335.3494u  526.5816m 
   43.90000p    1.1101   326.1699u  543.7177m 
   44.00000p    1.1079   316.9904u  560.8539m 
   44.10000p    1.1057   307.8109u  577.9900m 
   44.20000p    1.1035   298.6314u  595.1261m 
   44.30000p    1.1012   289.4519u  612.2623m 
   44.40000p    1.0990   280.2725u  629.3984m 
   44.50000p    1.0936   271.9665u  645.8779m 
   44.60000p    1.0838   264.8631u  661.4532m 
   44.70000p    1.0740   257.7597u  677.0285m 
   44.80000p    1.0642   250.6563u  692.6039m 
   44.90000p    1.0544   243.5529u  708.1792m 
   45.00000p    1.0446   236.4495u  723.7545m 
   45.10000p    1.0348   229.3461u  739.3299m 
   45.20000p    1.0250   222.2427u  754.9052m 
   45.30000p    1.0152   215.1393u  770.4805m 
   45.40000p    1.0054   208.0359u  786.0559m 
   45.50000p  995.5978m  200.9325u  801.6312m 
   45.60000p  985.7961m  193.8292u  817.2065m 
   45.70000p  975.9945m  186.7258u  832.7819m 
   45.80000p  966.1928m  179.6224u  848.3572m 
   45.90000p  956.3912m  172.5190u  863.9325m 
   46.00000p  946.5895m  165.4156u  879.5079m 
   46.10000p  934.7720m  159.8074u  893.0826m 
   46.20000p  919.5556m  156.7200u  903.2843m 
   46.30000p  904.3392m  153.6327u  913.4861m 
   46.40000p  889.1074m  150.6195u  923.6327m 
   46.50000p  873.6308m  148.7843u  932.9036m 
   46.60000p  858.1542m  146.9491u  942.1745m 
   46.70000p  842.6776m  145.1139u  951.4455m 
   46.80000p  827.0549m  143.8551u  958.9809m 
   46.90000p  811.2926m  143.1466u  964.8590m 
   47.00000p  795.5302m  142.4381u  970.7371m 
   47.10000p  779.7679m  141.7295u  976.6152m 
   47.20000p  764.0056m  141.0210u  982.4933m 
   47.30000p  748.2433m  140.3125u  988.3714m 
   47.40000p  732.4810m  139.6040u  994.2495m 
   47.50000p  716.7187m  138.8955u    1.0001  
   47.60000p  700.9563m  138.1870u    1.0060  
   47.70000p  685.1940m  137.4785u    1.0119  
   47.80000p  669.4317m  136.7699u    1.0178  
   47.90000p  653.6974m  136.0087u    1.0231  
   48.00000p  638.1112m  134.9680u    1.0256  
   48.10000p  622.5251m  133.9274u    1.0280  
   48.20000p  606.9389m  132.8867u    1.0305  
   48.30000p  591.3528m  131.8461u    1.0330  
   48.40000p  575.7667m  130.8054u    1.0354  
   48.50000p  560.1805m  129.7647u    1.0379  
   48.60000p  544.5944m  128.7241u    1.0404  
   48.70000p  529.0082m  127.6834u    1.0429  
   48.80000p  513.4221m  126.6428u    1.0453  
   48.90000p  497.8360m  125.6021u    1.0478  
   49.00000p  482.2498m  124.5614u    1.0503  
   49.10000p  466.6637m  123.5208u    1.0527  
   49.20000p  451.0775m  122.4801u    1.0552  
   49.30000p  437.7492m  119.8232u    1.0567  
   49.40000p  425.2795m  116.5518u    1.0578  
   49.50000p  412.8098m  113.2804u    1.0589  
   49.60000p  400.3400m  110.0089u    1.0599  
   49.70000p  387.8703m  106.7375u    1.0610  
   49.80000p  375.4005m  103.4661u    1.0621  
   49.90000p  362.9308m  100.1946u    1.0632  
   50.00000p  350.4610m   96.9232u    1.0643  
   50.10000p  337.9913m   93.6518u    1.0654  
   50.20000p  325.5216m   90.3803u    1.0665  
   50.30000p  313.0518m   87.1089u    1.0676  
   50.40000p  300.5821m   83.8375u    1.0687  
   50.50000p  288.1123m   80.5660u    1.0698  
   50.60000p  275.6426m   77.2946u    1.0709  
   50.70000p  263.1728m   74.0232u    1.0720  
   50.80000p  250.7031m   70.7517u    1.0730  
   50.90000p  240.7044m   65.9408u    1.0740  
   51.00000p  233.8717m   59.1575u    1.0747  
   51.10000p  227.0390m   52.3742u    1.0754  
   51.20000p  220.2062m   45.5910u    1.0761  
   51.30000p  213.3735m   38.8077u    1.0769  
   51.40000p  206.5407m   32.0244u    1.0776  
   51.50000p  199.7080m   25.2411u    1.0783  
   51.60000p  192.8752m   18.4579u    1.0790  
   51.70000p  186.0425m   11.6746u    1.0798  
   51.80000p  179.2097m    4.8913u    1.0805  
   51.90000p  172.3770m   -1.8920u    1.0812  
   52.00000p  165.5443m   -8.6752u    1.0819  
   52.10000p  158.7115m  -15.4585u    1.0827  
   52.20000p  151.8788m  -22.2418u    1.0834  
   52.30000p  145.0460m  -29.0251u    1.0841  
   52.40000p  138.2133m  -35.8084u    1.0848  
   52.50000p  131.3805m  -42.5916u    1.0856  
   52.60000p  125.8115m  -50.1157u    1.0862  
   52.70000p  122.7474m  -59.1084u    1.0866  
   52.80000p  119.6833m  -68.1010u    1.0871  
   52.90000p  116.6193m  -77.0937u    1.0875  
   53.00000p  113.5552m  -86.0863u    1.0879  
   53.10000p  110.4911m  -95.0790u    1.0884  
   53.20000p  107.4270m -104.0716u    1.0888  
   53.30000p  104.3629m -113.0642u    1.0892  
   53.40000p  101.2989m -122.0569u    1.0896  
   53.50000p   98.2348m -131.0495u    1.0901  
   53.60000p   95.1707m -140.0422u    1.0905  
   53.70000p   92.1066m -149.0348u    1.0909  
   53.80000p   89.0425m -158.0274u    1.0914  
   53.90000p   85.9785m -167.0201u    1.0918  
   54.00000p   82.9144m -176.0127u    1.0922  
   54.10000p   79.8503m -185.0054u    1.0927  
   54.20000p   76.7862m -193.9980u    1.0931  
   54.30000p   74.7755m -165.1377u    1.0933  
   54.40000p   72.8114m -134.6038u    1.0934  
   54.50000p   70.8472m -104.0699u    1.0936  
   54.60000p   68.8831m  -73.5360u    1.0938  
   54.70000p   66.9189m  -43.0021u    1.0939  
   54.80000p   64.9548m  -12.4682u    1.0941  
   54.90000p   62.9906m   18.0658u    1.0942  
   55.00000p   61.0265m   48.5997u    1.0944  
   55.10000p   59.0623m   79.1336u    1.0946  
   55.20000p   57.0982m  109.6675u    1.0947  
   55.30000p   55.1340m  140.2014u    1.0949  
   55.40000p   53.1699m  170.7353u    1.0951  
   55.50000p   51.2057m  201.2692u    1.0952  
   55.60000p   49.2416m  231.8031u    1.0954  
   55.70000p   47.2775m  262.3370u    1.0956  
   55.80000p   45.3133m  292.8710u    1.0957  
   55.90000p   43.6720m  360.8917u    1.0958  
   56.00000p   42.2261m  451.5945u    1.0959  
   56.10000p   40.7802m  542.2972u    1.0960  
   56.20000p   39.3343m  632.9999u    1.0961  
   56.30000p   37.8884m  723.7027u    1.0961  
   56.40000p   36.4425m  814.4054u    1.0962  
   56.50000p   34.9966m  905.1081u    1.0963  
   56.60000p   33.5506m  995.8109u    1.0964  
   56.70000p   32.1047m    1.0865m    1.0965  
   56.80000p   30.6588m    1.1772m    1.0965  
   56.90000p   29.2129m    1.2679m    1.0966  
   57.00000p   27.7670m    1.3586m    1.0967  
   57.10000p   26.3211m    1.4493m    1.0968  
   57.20000p   24.8752m    1.5400m    1.0969  
   57.30000p   23.5431m    1.6319m    1.0969  
   57.40000p   22.7348m    1.7290m    1.0970  
   57.50000p   21.9265m    1.8262m    1.0971  
   57.60000p   21.1182m    1.9233m    1.0972  
   57.70000p   20.3099m    2.0205m    1.0973  
   57.80000p   19.5017m    2.1177m    1.0973  
   57.90000p   18.6934m    2.2148m    1.0974  
   58.00000p   17.8851m    2.3120m    1.0975  
   58.10000p   17.0768m    2.4091m    1.0976  
   58.20000p   16.2685m    2.5063m    1.0977  
   58.30000p   15.4602m    2.6034m    1.0977  
   58.40000p   14.6519m    2.7006m    1.0978  
   58.50000p   13.8436m    2.7977m    1.0979  
   58.60000p   13.0353m    2.8949m    1.0980  
   58.70000p   12.2270m    2.9921m    1.0981  
   58.80000p   11.4187m    3.0892m    1.0982  
   58.90000p   10.7829m    3.0805m    1.0982  
   59.00000p   10.4513m    2.8851m    1.0983  
   59.10000p   10.1197m    2.6897m    1.0983  
   59.20000p    9.7881m    2.4943m    1.0984  
   59.30000p    9.4565m    2.2989m    1.0985  
   59.40000p    9.1249m    2.1035m    1.0985  
   59.50000p    8.7933m    1.9081m    1.0986  
   59.60000p    8.4618m    1.7126m    1.0986  
   59.70000p    8.1302m    1.5172m    1.0987  
   59.80000p    7.7986m    1.3218m    1.0988  
   59.90000p    7.4670m    1.1264m    1.0988  
   60.00000p    7.1354m  931.0006u    1.0989  
   60.10000p    6.8038m  735.5895u    1.0990  
   60.20000p    6.4722m  540.1783u    1.0990  
   60.30000p    6.1407m  344.7672u    1.0991  
   60.40000p    5.8091m  149.3560u    1.0991  
   60.50000p    5.5061m -144.1814u    1.0992  
   60.60000p    5.3594m -972.3403u    1.0992  
   60.70000p    5.2126m   -1.8005m    1.0992  
   60.80000p    5.0658m   -2.6287m    1.0993  
   60.90000p    4.9190m   -3.4568m    1.0993  
   61.00000p    4.7722m   -4.2850m    1.0993  
   61.10000p    4.6255m   -5.1131m    1.0993  
   61.20000p    4.4787m   -5.9413m    1.0994  
   61.30000p    4.3319m   -6.7695m    1.0994  
   61.40000p    4.1851m   -7.5976m    1.0994  
   61.50000p    4.0384m   -8.4258m    1.0994  
   61.60000p    3.8916m   -9.2539m    1.0995  
   61.70000p    3.7448m  -10.0821m    1.0995  
   61.80000p    3.5980m  -10.9102m    1.0995  
   61.90000p    3.4512m  -11.7384m    1.0995  
   62.00000p    3.3045m  -12.5666m    1.0996  
   62.10000p    3.1577m  -13.3947m    1.0996  
   62.20000p    3.0109m  -14.2229m    1.0996  
   62.30000p    2.8912m  -14.8812m    1.0996  
   62.40000p    2.8027m  -15.3438m    1.0996  
   62.50000p    2.7141m  -15.8064m    1.0996  
   62.60000p    2.6256m  -16.2690m    1.0996  
   62.70000p    2.5371m  -16.7316m    1.0997  
   62.80000p    2.4485m  -17.1942m    1.0997  
   62.90000p    2.3600m  -17.6568m    1.0997  
   63.00000p    2.2715m  -18.1194m    1.0997  
   63.10000p    2.1830m  -18.5820m    1.0997  
   63.20000p    2.0944m  -19.0446m    1.0997  
   63.30000p    2.0059m  -19.5072m    1.0997  
   63.40000p    1.9174m  -19.9698m    1.0997  
   63.50000p    1.8288m  -20.4324m    1.0997  
   63.60000p    1.7403m  -20.8950m    1.0997  
   63.70000p    1.6518m  -21.3576m    1.0998  
   63.80000p    1.5632m  -21.8202m    1.0998  
   63.90000p    1.4951m  -20.4096m    1.0998  
   64.00000p    1.4450m  -17.3439m    1.0998  
   64.10000p    1.3950m  -14.2782m    1.0998  
   64.20000p    1.3449m  -11.2125m    1.0998  
   64.30000p    1.2948m   -8.1469m    1.0998  
   64.40000p    1.2447m   -5.0812m    1.0998  
   64.50000p    1.1946m   -2.0155m    1.0998  
   64.60000p    1.1446m    1.0502m    1.0998  
   64.70000p    1.0945m    4.1159m    1.0998  
   64.80000p    1.0444m    7.1815m    1.0998  
   64.90000p  994.3136u   10.2472m    1.0999  
   65.00000p  944.2318u   13.3129m    1.0999  
   65.10000p  894.1500u   16.3786m    1.0999  
   65.20000p  844.0682u   19.4443m    1.0999  
   65.30000p  793.9865u   22.5099m    1.0999  
   65.40000p  763.3747u   29.9158m    1.0999  
   65.50000p  747.2918u   40.5604m    1.0999  
   65.60000p  731.2090u   51.2050m    1.0999  
   65.70000p  715.1262u   61.8496m    1.0999  
   65.80000p  699.0433u   72.4942m    1.0999  
   65.90000p  682.9605u   83.1387m    1.0999  
   66.00000p  666.8776u   93.7833m    1.0999  
   66.10000p  650.7948u  104.4279m    1.0999  
   66.20000p  634.7120u  115.0725m    1.0999  
   66.30000p  618.6291u  125.7171m    1.0999  
   66.40000p  602.5463u  136.3617m    1.0999  
   66.50000p  586.4635u  147.0063m    1.0999  
   66.60000p  570.3806u  157.6509m    1.0999  
   66.70000p  554.2978u  168.2955m    1.0999  
   66.80000p  538.2150u  178.9401m    1.0999  
   66.90000p  522.1321u  189.5847m    1.0999  
   67.00000p  509.2613u  202.7055m    1.0999  
   67.10000p  500.2898u  218.8325m    1.0999  
   67.20000p  491.3184u  234.9596m    1.0999  
   67.30000p  482.3470u  251.0866m    1.0999  
   67.40000p  473.3756u  267.2137m    1.0999  
   67.50000p  464.4041u  283.3407m    1.0999  
   67.60000p  455.4327u  299.4678m    1.0999  
   67.70000p  446.4613u  315.5948m    1.0999  
   67.80000p  437.4899u  331.7219m    1.0999  
   67.90000p  428.5184u  347.8489m    1.0999  
   68.00000p  419.5470u  363.9760m    1.0999  
   68.10000p  410.5756u  380.1030m    1.0999  
   68.20000p  401.6041u  396.2301m    1.0999  
   68.30000p  392.6327u  412.3571m    1.0999  
   68.40000p  383.6613u  428.4842m    1.0999  
   68.50000p  374.6899u  444.6112m    1.0999  
   68.60000p  366.0165u  461.2514m    1.0999  
   68.70000p  357.6893u  478.4872m    1.0999  
   68.80000p  349.3620u  495.7230m    1.0999  
   68.90000p  341.0347u  512.9589m    1.0999  
   69.00000p  332.7074u  530.1947m    1.0999  
   69.10000p  324.3801u  547.4305m    1.0999  
   69.20000p  316.0529u  564.6663m    1.0999  
   69.30000p  307.7256u  581.9021m    1.0999  
   69.40000p  299.3983u  599.1380m    1.0999  
   69.50000p  291.0710u  616.3738m    1.0999  
   69.60000p  282.7437u  633.6096m    1.0999  
   69.70000p  274.4165u  650.8454m    1.0999  
   69.80000p  266.0892u  668.0812m    1.0999  
   69.90000p  257.7619u  685.3170m    1.0999  
   70.00000p  249.4346u  702.5529m    1.0999  
   70.10000p  241.1073u  719.7887m    1.0999  
   70.20000p  232.7801u  737.0245m    1.0999  
   70.30000p  224.4528u  754.2603m    1.0999  
   70.40000p  219.0333u  767.0665m    1.0999  
   70.50000p  213.6375u  779.8366m    1.1000  
   70.60000p  208.2417u  792.6068m    1.1000  
   70.70000p  202.8459u  805.3770m    1.1000  
   70.80000p  197.4501u  818.1471m    1.1000  
   70.90000p  192.0543u  830.9173m    1.1000  
   71.00000p  186.6585u  843.6874m    1.1000  
   71.10000p  181.2627u  856.4576m    1.1000  
   71.20000p  175.8669u  869.2278m    1.1000  
   71.30000p  170.4711u  881.9979m    1.1000  
   71.40000p  165.0753u  894.7681m    1.1000  
   71.50000p  159.6795u  907.5382m    1.1000  
   71.60000p  154.2837u  920.3084m    1.1000  
   71.70000p  148.8879u  933.0786m    1.1000  
   71.80000p  143.4921u  945.8487m    1.1000  
   71.90000p  138.2683u  958.3625m    1.1000  
   72.00000p  137.9467u  963.5666m    1.1000  
   72.10000p  137.6252u  968.7707m    1.1000  
   72.20000p  137.3036u  973.9748m    1.1000  
   72.30000p  136.9821u  979.1789m    1.1000  
   72.40000p  136.6605u  984.3830m    1.1000  
   72.50000p  136.3389u  989.5871m    1.1000  
   72.60000p  136.0174u  994.7912m    1.1001  
   72.70000p  135.6958u  999.9953m    1.1001  
   72.80000p  135.3743u    1.0052     1.1001  
   72.90000p  135.0527u    1.0104     1.1001  
   73.00000p  134.7312u    1.0156     1.1001  
   73.10000p  134.4096u    1.0208     1.1001  
   73.20000p  134.0881u    1.0260     1.1001  
   73.30000p  133.7665u    1.0312     1.1001  
   73.40000p  133.4450u    1.0364     1.1001  
   73.50000p  132.2752u    1.0393     1.1002  
   73.60000p  130.7915u    1.0414     1.1002  
   73.70000p  129.3079u    1.0434     1.1002  
   73.80000p  127.9506u    1.0454     1.1002  
   73.90000p  126.7463u    1.0472     1.1002  
   74.00000p  125.5421u    1.0491     1.1002  
   74.10000p  124.3379u    1.0509     1.1002  
   74.20000p  122.6358u    1.0525     1.1002  
   74.30000p  120.2190u    1.0537     1.1002  
   74.40000p  117.8023u    1.0550     1.1002  
   74.50000p  115.3855u    1.0562     1.1002  
   74.60000p  112.9687u    1.0575     1.1003  
   74.70000p  110.5520u    1.0588     1.1003  
   74.80000p  108.1352u    1.0600     1.1003  
   74.90000p  105.7184u    1.0613     1.1003  
   75.00000p  103.3017u    1.0625     1.1003  
   75.10000p  100.8849u    1.0638     1.1003  
   75.20000p   98.4681u    1.0650     1.1003  
   75.30000p   96.0513u    1.0663     1.1003  
   75.40000p   93.6346u    1.0675     1.1003  
   75.50000p   89.3785u    1.0686     1.1003  
   75.60000p   83.1137u    1.0694     1.1002  
   75.70000p   76.8489u    1.0703     1.1002  
   75.80000p   70.5841u    1.0712     1.1001  
   75.90000p   64.3192u    1.0720     1.1001  
   76.00000p   58.0544u    1.0729     1.1001  
   76.10000p   51.7896u    1.0738     1.1000  
   76.20000p   45.5247u    1.0746     1.1000  
   76.30000p   39.2599u    1.0755     1.0999  
   76.40000p   32.9951u    1.0764     1.0999  
   76.50000p   26.7302u    1.0772     1.0999  
   76.60000p   20.4654u    1.0781     1.0998  
   76.70000p   14.2006u    1.0790     1.0998  
   76.80000p    7.9358u    1.0798     1.0997  
   76.90000p  831.5839n    1.0805     1.0997  
   77.00000p   -6.6451u    1.0811     1.0996  
   77.10000p  -14.1219u    1.0817     1.0995  
   77.20000p  -21.5986u    1.0823     1.0994  
   77.30000p  -29.0753u    1.0829     1.0994  
   77.40000p  -36.5520u    1.0835     1.0993  
   77.50000p  -44.0288u    1.0841     1.0992  
   77.60000p  -51.5055u    1.0848     1.0991  
   77.70000p  -58.9822u    1.0854     1.0991  
   77.80000p  -66.4589u    1.0860     1.0990  
   77.90000p  -73.9357u    1.0866     1.0989  
   78.00000p  -81.4124u    1.0872     1.0988  
   78.10000p  -88.8891u    1.0878     1.0988  
   78.20000p  -96.3658u    1.0884     1.0987  
   78.30000p -103.8426u    1.0890     1.0986  
   78.40000p -108.7348u    1.0895     1.0985  
   78.50000p -110.4292u    1.0898     1.0985  
   78.60000p -112.1235u    1.0901     1.0984  
   78.70000p -113.8178u    1.0904     1.0983  
   78.80000p -115.5122u    1.0907     1.0982  
   78.90000p -117.2065u    1.0910     1.0982  
   79.00000p -118.9008u    1.0914     1.0981  
   79.10000p -120.5952u    1.0917     1.0980  
   79.20000p -122.2895u    1.0920     1.0979  
   79.30000p -123.9839u    1.0923     1.0979  
   79.40000p -125.6782u    1.0926     1.0978  
   79.50000p -127.3725u    1.0929     1.0977  
   79.60000p -129.0669u    1.0933     1.0976  
   79.70000p -130.7612u    1.0936     1.0976  
   79.80000p -132.4555u    1.0939     1.0975  
   79.90000p -134.1499u    1.0942     1.0974  
   80.00000p -117.5517u    1.0945     1.0975  
   80.10000p  -63.3602u    1.0946     1.0978  
   80.20000p   -9.1687u    1.0947     1.0982  
   80.30000p   45.0228u    1.0948     1.0986  
   80.40000p   99.2143u    1.0949     1.0989  
   80.50000p  153.4058u    1.0950     1.0993  
   80.60000p  207.5974u    1.0951     1.0996  
   80.70000p  261.7889u    1.0952     1.1000  
   80.80000p  315.9804u    1.0954     1.1004  
   80.90000p  370.1719u    1.0955     1.1007  
   81.00000p  424.3634u    1.0956     1.1011  
   81.10000p  478.5549u    1.0957     1.1014  
   81.20000p  532.7464u    1.0958     1.1018  
   81.30000p  586.9379u    1.0959     1.1022  
   81.40000p  641.1294u    1.0960     1.1025  
   81.50000p  695.3209u    1.0961     1.1029  
   81.60000p  788.8667u    1.0962     1.1038  
   81.70000p  903.9598u    1.0963     1.1049  
   81.80000p    1.0191m    1.0964     1.1061  
   81.90000p    1.1341m    1.0965     1.1073  
   82.00000p    1.2492m    1.0966     1.1085  
   82.10000p    1.3643m    1.0966     1.1096  
   82.20000p    1.4794m    1.0967     1.1108  
   82.30000p    1.5945m    1.0968     1.1120  
   82.40000p    1.7096m    1.0969     1.1132  
   82.50000p    1.8247m    1.0970     1.1143  
   82.60000p    1.9398m    1.0971     1.1155  
   82.70000p    2.0549m    1.0971     1.1167  
   82.80000p    2.1700m    1.0972     1.1179  
   82.90000p    2.2851m    1.0973     1.1190  
   83.00000p    2.4002m    1.0974     1.1202  
   83.10000p    2.5153m    1.0975     1.1214  
   83.20000p    2.5479m    1.0975     1.1223  
   83.30000p    2.5403m    1.0976     1.1232  
   83.40000p    2.5328m    1.0977     1.1241  
   83.50000p    2.5253m    1.0978     1.1249  
   83.60000p    2.5177m    1.0978     1.1258  
   83.70000p    2.5102m    1.0979     1.1267  
   83.80000p    2.5027m    1.0980     1.1275  
   83.90000p    2.4951m    1.0981     1.1284  
   84.00000p    2.4876m    1.0981     1.1293  
   84.10000p    2.4801m    1.0982     1.1301  
   84.20000p    2.4725m    1.0983     1.1310  
   84.30000p    2.4650m    1.0984     1.1319  
   84.40000p    2.4575m    1.0984     1.1327  
   84.50000p    2.4499m    1.0985     1.1336  
   84.60000p    2.4424m    1.0986     1.1345  
   84.70000p    2.4349m    1.0987     1.1353  
   84.80000p    2.1338m    1.0987     1.1338  
   84.90000p    1.7248m    1.0988     1.1314  
   85.00000p    1.3158m    1.0988     1.1289  
   85.10000p  906.8178u    1.0989     1.1265  
   85.20000p  497.8404u    1.0989     1.1241  
   85.30000p   88.8630u    1.0989     1.1216  
   85.40000p -320.1144u    1.0990     1.1192  
   85.50000p -729.0918u    1.0990     1.1168  
   85.60000p   -1.1381m    1.0991     1.1143  
   85.70000p   -1.5470m    1.0991     1.1119  
   85.80000p   -1.9560m    1.0992     1.1095  
   85.90000p   -2.3650m    1.0992     1.1070  
   86.00000p   -2.7740m    1.0993     1.1046  
   86.10000p   -3.1830m    1.0993     1.1022  
   86.20000p   -3.5919m    1.0994     1.0997  
   86.30000p   -4.0009m    1.0994     1.0973  
   86.40000p   -4.4099m    1.0994     1.0949  
   86.50000p   -5.1197m    1.0995     1.0896  
   86.60000p   -6.0806m    1.0995     1.0820  
   86.70000p   -7.0415m    1.0995     1.0744  
   86.80000p   -8.0024m    1.0995     1.0668  
   86.90000p   -9.0788m    1.0995     1.0581  
   87.00000p  -10.1920m    1.0995     1.0491  
   87.10000p  -11.3051m    1.0996     1.0400  
   87.20000p  -12.4183m    1.0996     1.0309  
   87.30000p  -13.4620m    1.0996     1.0179  
   87.40000p  -14.5040m    1.0996     1.0048  
   87.50000p  -15.5460m    1.0996   991.7175m 
   87.60000p  -16.5880m    1.0996   978.6128m 
   87.70000p  -17.6300m    1.0996   965.5082m 
   87.80000p  -18.6720m    1.0997   952.4035m 
   87.90000p  -19.7140m    1.0997   939.2988m 
   88.00000p  -20.7560m    1.0997   926.1941m 
   88.10000p  -21.7980m    1.0997   913.0894m 
   88.20000p  -22.8400m    1.0997   899.9848m 
   88.30000p  -23.8820m    1.0997   886.8801m 
   88.40000p  -24.9240m    1.0997   873.7754m 
   88.50000p  -24.4547m    1.0997   858.3370m 
   88.60000p  -23.7548m    1.0997   842.5427m 
   88.70000p  -23.0549m    1.0998   826.7484m 
   88.80000p  -22.3550m    1.0998   810.9541m 
   88.90000p  -21.6551m    1.0998   795.1598m 
   89.00000p  -20.9553m    1.0998   779.3655m 
   89.10000p  -20.2554m    1.0998   763.5712m 
   89.20000p  -19.5555m    1.0998   747.7769m 
   89.30000p  -18.8556m    1.0998   731.9825m 
   89.40000p  -18.1558m    1.0998   716.1882m 
   89.50000p  -16.1963m    1.0998   700.4119m 
   89.60000p  -10.7300m    1.0998   684.6854m 
   89.70000p   -5.2638m    1.0998   668.9590m 
   89.80000p  202.4429u    1.0998   653.2325m 
   89.90000p    5.6687m    1.0998   637.5061m 
   90.00000p   11.1349m    1.0998   621.7797m 
   90.10000p   16.6012m    1.0998   606.0532m 
   90.20000p   22.0674m    1.0999   590.3268m 
   90.30000p   27.5337m    1.0999   574.6003m 
   90.40000p   32.9999m    1.0999   558.8739m 
   90.50000p   38.4661m    1.0999   543.1475m 
   90.60000p   43.9324m    1.0999   527.4210m 
   90.70000p   49.3986m    1.0999   511.6946m 
   90.80000p   54.8649m    1.0999   495.9681m 
   90.90000p   60.3311m    1.0999   480.2417m 
   91.00000p   69.8793m    1.0999   465.9979m 
   91.10000p   82.5365m    1.0999   452.8834m 
   91.20000p   95.1938m    1.0999   439.7689m 
   91.30000p  107.8511m    1.0999   426.6544m 
   91.40000p  120.5083m    1.0999   413.5399m 
   91.50000p  133.1656m    1.0999   400.4254m 
   91.60000p  145.8228m    1.0999   387.3109m 
   91.70000p  158.4801m    1.0999   374.1964m 
   91.80000p  171.1373m    1.0999   361.0819m 
   91.90000p  183.7946m    1.0999   347.9674m 
   92.00000p  196.4518m    1.0999   334.8529m 
   92.10000p  209.1091m    1.0999   321.7384m 
   92.20000p  221.7663m    1.0999   308.6240m 
   92.30000p  234.4236m    1.0999   295.5095m 
   92.40000p  247.0808m    1.0999   282.3950m 
   92.50000p  259.7381m    1.0999   269.2805m 
   92.60000p  275.4203m    1.0999   260.2771m 
   92.70000p  292.2344m    1.0999   252.8119m 
   92.80000p  309.0486m    1.0999   245.3467m 
   92.90000p  325.8627m    1.0999   237.8815m 
   93.00000p  342.6768m    1.0999   230.4163m 
   93.10000p  359.4909m    1.0999   222.9511m 
   93.20000p  376.3050m    1.0999   215.4859m 
   93.30000p  393.1191m    1.0999   208.0207m 
   93.40000p  409.9332m    1.0999   200.5556m 
   93.50000p  426.7473m    1.0999   193.0904m 
   93.60000p  443.5614m    1.1000   185.6252m 
   93.70000p  460.3755m    1.1000   178.1600m 
   93.80000p  477.1896m    1.1000   170.6948m 
   93.90000p  494.0037m    1.1000   163.2296m 
   94.00000p  510.8178m    1.1000   155.7644m 
   94.10000p  527.6319m    1.1000   148.2992m 
   94.20000p  544.4460m    1.1000   140.8340m 
   94.30000p  561.2064m    1.1000   134.2747m 
   94.40000p  577.7730m    1.1000   130.9853m 
   94.50000p  594.3396m    1.1000   127.6959m 
   94.60000p  610.9063m    1.1000   124.4065m 
   94.70000p  627.4729m    1.1000   121.1170m 
   94.80000p  644.0395m    1.1000   117.8276m 
   94.90000p  660.6061m    1.1000   114.5382m 
   95.00000p  677.1727m    1.1000   111.2488m 
   95.10000p  693.7393m    1.1000   107.9594m 
   95.20000p  710.3060m    1.1000   104.6699m 
   95.30000p  726.8726m    1.1000   101.3805m 
   95.40000p  743.4392m    1.1000    98.0911m 
   95.50000p  760.0058m    1.1000    94.8017m 
   95.60000p  776.5724m    1.1000    91.5122m 
   95.70000p  793.1390m    1.1000    88.2228m 
   95.80000p  809.7056m    1.1000    84.9334m 
   95.90000p  826.2723m    1.0999    81.6440m 
   96.00000p  841.1226m    1.1000    78.6862m 
   96.10000p  850.9591m    1.1000    76.6972m 
   96.20000p  860.7956m    1.1000    74.7082m 
   96.30000p  870.6320m    1.1000    72.7192m 
   96.40000p  880.4685m    1.1000    70.7302m 
   96.50000p  890.3049m    1.1000    68.7412m 
   96.60000p  900.1414m    1.1000    66.7522m 
   96.70000p  909.9779m    1.1000    64.7632m 
   96.80000p  919.8143m    1.1000    62.7742m 
   96.90000p  929.6508m    1.1000    60.7852m 
   97.00000p  939.4873m    1.1000    58.7962m 
   97.10000p  949.3237m    1.1000    56.8072m 
   97.20000p  959.1602m    1.1000    54.8182m 
   97.30000p  968.9967m    1.1000    52.8292m 
   97.40000p  978.8331m    1.1000    50.8402m 
   97.50000p  988.6696m    1.1000    48.8512m 
   97.60000p  998.5061m    1.1000    46.8622m 
   97.70000p    1.0028     1.1000    45.3064m 
   97.80000p    1.0062     1.1001    43.8194m 
   97.90000p    1.0096     1.1001    42.3325m 
   98.00000p    1.0130     1.1001    40.8455m 
   98.10000p    1.0164     1.1001    39.3585m 
   98.20000p    1.0198     1.1001    37.8716m 
   98.30000p    1.0233     1.1001    36.3846m 
   98.40000p    1.0267     1.1001    34.8976m 
   98.50000p    1.0301     1.1001    33.4107m 
   98.60000p    1.0335     1.1002    31.9237m 
   98.70000p    1.0369     1.1002    30.4368m 
   98.80000p    1.0403     1.1002    28.9498m 
   98.90000p    1.0437     1.1002    27.4628m 
   99.00000p    1.0471     1.1002    25.9759m 
   99.10000p    1.0500     1.1002    24.6245m 
   99.20000p    1.0514     1.1002    23.6097m 
   99.30000p    1.0528     1.1002    22.5949m 
   99.40000p    1.0542     1.1002    21.5801m 
   99.50000p    1.0556     1.1003    20.6202m 
   99.60000p    1.0569     1.1003    19.6859m 
   99.70000p    1.0582     1.1003    18.7515m 
   99.80000p    1.0595     1.1003    17.8693m 
   99.90000p    1.0605     1.1003    17.2144m 
  100.00000p    1.0616     1.1003    16.5595m 
  100.10000p    1.0626     1.1003    15.9045m 
  100.20000p    1.0637     1.1002    15.2496m 
  100.30000p    1.0648     1.1002    14.5946m 
  100.40000p    1.0658     1.1002    13.9397m 
  100.50000p    1.0669     1.1002    13.2847m 
  100.60000p    1.0679     1.1002    12.6298m 
  100.70000p    1.0690     1.1002    11.9748m 
  100.80000p    1.0700     1.1002    11.3199m 
  100.90000p    1.0711     1.1002    10.6653m 
  101.00000p    1.0719     1.1002    10.3291m 
  101.10000p    1.0727     1.1001     9.9929m 
  101.20000p    1.0736     1.1001     9.6567m 
  101.30000p    1.0744     1.1000     9.3205m 
  101.40000p    1.0752     1.1000     8.9842m 
  101.50000p    1.0760     1.0999     8.6480m 
  101.60000p    1.0768     1.0999     8.3118m 
  101.70000p    1.0777     1.0998     7.9756m 
  101.80000p    1.0785     1.0998     7.6394m 
  101.90000p    1.0793     1.0997     7.3032m 
  102.00000p    1.0801     1.0997     6.9670m 
  102.10000p    1.0810     1.0996     6.6307m 
  102.20000p    1.0818     1.0996     6.2945m 
  102.30000p    1.0824     1.0995     6.0712m 
  102.40000p    1.0830     1.0994     5.8948m 
  102.50000p    1.0836     1.0993     5.7183m 
  102.60000p    1.0841     1.0992     5.5419m 
  102.70000p    1.0847     1.0991     5.3655m 
  102.80000p    1.0853     1.0990     5.1891m 
  102.90000p    1.0858     1.0990     5.0127m 
  103.00000p    1.0864     1.0989     4.8363m 
  103.10000p    1.0869     1.0988     4.6599m 
  103.20000p    1.0875     1.0987     4.4834m 
  103.30000p    1.0881     1.0986     4.3070m 
  103.40000p    1.0886     1.0985     4.1306m 
  103.50000p    1.0892     1.0984     3.9542m 
  103.60000p    1.0898     1.0983     3.7778m 
  103.70000p    1.0902     1.0983     3.6293m 
  103.80000p    1.0905     1.0983     3.5233m 
  103.90000p    1.0908     1.0982     3.4173m 
  104.00000p    1.0910     1.0982     3.3112m 
  104.10000p    1.0913     1.0982     3.2052m 
  104.20000p    1.0916     1.0981     3.0992m 
  104.30000p    1.0919     1.0981     2.9931m 
  104.40000p    1.0921     1.0981     2.8871m 
  104.50000p    1.0924     1.0981     2.7811m 
  104.60000p    1.0927     1.0980     2.6750m 
  104.70000p    1.0930     1.0980     2.5690m 
  104.80000p    1.0932     1.0980     2.4630m 
  104.90000p    1.0935     1.0980     2.3569m 
  105.00000p    1.0938     1.0979     2.2509m 
  105.10000p    1.0941     1.0979     2.1449m 
  105.20000p    1.0943     1.0979     2.0388m 
  105.30000p    1.0946     1.0979     1.9328m 
  105.40000p    1.0949     1.0978     1.8268m 
  105.50000p    1.0950     1.0982     1.7584m 
  105.60000p    1.0951     1.0987     1.6973m 
  105.70000p    1.0952     1.0991     1.6362m 
  105.80000p    1.0953     1.0996     1.5752m 
  105.90000p    1.0954     1.1001     1.5141m 
  106.00000p    1.0955     1.1005     1.4530m 
  106.10000p    1.0956     1.1010     1.3919m 
  106.20000p    1.0957     1.1015     1.3308m 
  106.30000p    1.0958     1.1019     1.2698m 
  106.40000p    1.0959     1.1024     1.2087m 
  106.50000p    1.0960     1.1029     1.1476m 
  106.60000p    1.0961     1.1033     1.0865m 
  106.70000p    1.0962     1.1038     1.0254m 
  106.80000p    1.0963     1.1043   964.3474u 
  106.90000p    1.0964     1.1050   917.8883u 
  107.00000p    1.0965     1.1063   896.1672u 
  107.10000p    1.0965     1.1076   874.4460u 
  107.20000p    1.0966     1.1089   852.7249u 
  107.30000p    1.0967     1.1102   831.0038u 
  107.40000p    1.0968     1.1115   809.2827u 
  107.50000p    1.0969     1.1128   787.5615u 
  107.60000p    1.0970     1.1141   765.8404u 
  107.70000p    1.0970     1.1153   744.1193u 
  107.80000p    1.0971     1.1166   722.3982u 
  107.90000p    1.0972     1.1179   700.6770u 
  108.00000p    1.0973     1.1192   678.9559u 
  108.10000p    1.0974     1.1205   657.2348u 
  108.20000p    1.0975     1.1218   635.5136u 
  108.30000p    1.0975     1.1231   613.7925u 
  108.40000p    1.0976     1.1244   592.0714u 
  108.50000p    1.0977     1.1256   570.3503u 
  108.60000p    1.0978     1.1265   554.7431u 
  108.70000p    1.0978     1.1270   544.7472u 
  108.80000p    1.0979     1.1275   534.7513u 
  108.90000p    1.0980     1.1280   524.7554u 
  109.00000p    1.0981     1.1285   514.7595u 
  109.10000p    1.0981     1.1289   504.7637u 
  109.20000p    1.0982     1.1294   494.7678u 
  109.30000p    1.0983     1.1299   484.7719u 
  109.40000p    1.0983     1.1304   474.7760u 
  109.50000p    1.0984     1.1309   464.7801u 
  109.60000p    1.0985     1.1314   454.7842u 
  109.70000p    1.0986     1.1319   444.7883u 
  109.80000p    1.0986     1.1323   434.7925u 
  109.90000p    1.0987     1.1328   424.7966u 
  110.00000p    1.0988     1.1333   414.8007u 
  110.10000p    1.0988     1.1338   404.8048u 
  110.20000p    1.0989     1.1311   395.5749u 
  110.30000p    1.0989     1.1274   386.5664u 
  110.40000p    1.0990     1.1237   377.5580u 
  110.50000p    1.0990     1.1200   368.5495u 
  110.60000p    1.0990     1.1164   359.5410u 
  110.70000p    1.0991     1.1127   350.5325u 
  110.80000p    1.0991     1.1090   341.5241u 
  110.90000p    1.0992     1.1053   332.5156u 
  111.00000p    1.0992     1.1016   323.5071u 
  111.10000p    1.0992     1.0980   314.4987u 
  111.20000p    1.0993     1.0943   305.4902u 
  111.30000p    1.0993     1.0906   296.4817u 
  111.40000p    1.0993     1.0869   287.4733u 
  111.50000p    1.0994     1.0833   278.4648u 
  111.60000p    1.0994     1.0796   269.4563u 
  111.70000p    1.0995     1.0759   260.4478u 
  111.80000p    1.0995     1.0722   251.4394u 
  111.90000p    1.0995     1.0666   243.7233u 
  112.00000p    1.0996     1.0568   238.7065u 
  112.10000p    1.0996     1.0471   233.6897u 
  112.20000p    1.0996     1.0374   228.6730u 
  112.30000p    1.0996     1.0271   223.1051u 
  112.40000p    1.0996     1.0163   216.8958u 
  112.50000p    1.0996     1.0054   210.6866u 
  112.60000p    1.0996   994.5847m  204.4773u 
  112.70000p    1.0996   980.7402m  199.8830u 
  112.80000p    1.0996   966.7086m  195.3897u 
  112.90000p    1.0997   952.6770m  190.8963u 
  113.00000p    1.0997   938.6455m  186.4030u 
  113.10000p    1.0997   924.6139m  181.9096u 
  113.20000p    1.0997   910.5823m  177.4163u 
  113.30000p    1.0997   896.5507m  172.9230u 
  113.40000p    1.0997   882.5192m  168.4296u 
  113.50000p    1.0997   868.4876m  163.9363u 
  113.60000p    1.0997   854.4560m  159.4429u 
  113.70000p    1.0997   840.4244m  154.9496u 
  113.80000p    1.0997   825.1873m  151.7639u 
  113.90000p    1.0997   809.3670m  149.2110u 
  114.00000p    1.0997   793.5466m  146.6581u 
  114.10000p    1.0998   777.7262m  144.1052u 
  114.20000p    1.0998   761.9058m  141.5523u 
  114.30000p    1.0998   746.0854m  138.9994u 
  114.40000p    1.0998   730.2650m  136.4465u 
  114.50000p    1.0998   714.4446m  133.8936u 
  114.60000p    1.0998   698.6243m  131.3407u 
  114.70000p    1.0998   682.8039m  128.7878u 
  114.80000p    1.0998   666.9835m  126.2349u 
  114.90000p    1.0998   651.2467m  124.1693u 
  115.00000p    1.0998   635.7338m  123.4098u 
  115.10000p    1.0998   620.2210m  122.6504u 
  115.20000p    1.0998   604.7081m  121.8909u 
  115.30000p    1.0998   589.1953m  121.1314u 
  115.40000p    1.0999   573.6825m  120.3719u 
  115.50000p    1.0999   558.1696m  119.6125u 
  115.60000p    1.0999   542.6568m  118.8530u 
  115.70000p    1.0999   527.1439m  118.0935u 
  115.80000p    1.0999   511.6311m  117.3341u 
  115.90000p    1.0999   496.1182m  116.5746u 
  116.00000p    1.0999   480.6054m  115.8151u 
  116.10000p    1.0999   465.0925m  115.0556u 
  116.20000p    1.0999   449.5797m  114.2962u 
  116.30000p    1.0999   434.0669m  113.5367u 
  116.40000p    1.0999   421.4643m  111.0172u 
  116.50000p    1.0999   409.2198m  108.2811u 
  116.60000p    1.0999   396.9753m  105.5450u 
  116.70000p    1.0999   384.7308m  102.8089u 
  116.80000p    1.0999   372.4863m  100.0729u 
  116.90000p    1.0999   360.2418m   97.3368u 
  117.00000p    1.0999   347.9973m   94.6007u 
  117.10000p    1.0999   335.7528m   91.8647u 
  117.20000p    1.0999   323.5083m   89.1286u 
  117.30000p    1.0999   311.2638m   86.3925u 
  117.40000p    1.0999   299.0193m   83.6565u 
  117.50000p    1.0999   286.7749m   80.9204u 
  117.60000p    1.0999   274.5304m   78.1843u 
  117.70000p    1.0999   262.2859m   75.4483u 
  117.80000p    1.0999   250.0414m   72.7122u 
  117.90000p    1.1000   237.9867m   69.8237u 
  118.00000p    1.1000   231.3605m   62.5758u 
  118.10000p    1.1000   224.7343m   55.3279u 
  118.20000p    1.1000   218.1082m   48.0799u 
  118.30000p    1.0999   211.4820m   40.8320u 
  118.40000p    1.0999   204.8558m   33.5841u 
  118.50000p    1.0999   198.2296m   26.3362u 
  118.60000p    1.0999   191.6035m   19.0882u 
  118.70000p    1.0999   184.9773m   11.8403u 
  118.80000p    1.0999   178.3511m    4.5924u 
  118.90000p    1.0999   171.7250m   -2.6555u 
  119.00000p    1.0999   165.0988m   -9.9034u 
  119.10000p    1.0999   158.4726m  -17.1514u 
  119.20000p    1.0999   151.8464m  -24.3993u 
  119.30000p    1.0999   145.2203m  -31.6472u 
  119.40000p    1.0999   138.5941m  -38.8951u 
  119.50000p    1.0999   131.9679m  -46.1430u 
  119.60000p    1.0999   125.3417m  -53.3910u 
  119.70000p    1.0999   121.0669m  -61.6255u 
  119.80000p    1.0999   118.1122m  -70.4138u 
  119.90000p    1.0999   115.1575m  -79.2022u 
  120.00000p    1.0999   112.2028m  -87.9906u 
  120.10000p    1.0999   109.2481m  -96.7790u 
  120.20000p    1.0999   106.2934m -105.5674u 
  120.30000p    1.0999   103.3386m -114.3558u 
  120.40000p    1.0999   100.3839m -123.1442u 
  120.50000p    1.0999    97.4292m -131.9325u 
  120.60000p    1.0999    94.4745m -140.7209u 
  120.70000p    1.0999    91.5198m -149.5093u 
  120.80000p    1.0999    88.5651m -158.2977u 
  120.90000p    1.0999    85.6104m -167.0861u 
  121.00000p    1.0999    82.6557m -175.8745u 
  121.10000p    1.0999    79.7010m -184.6629u 
  121.20000p    1.0999    76.7462m -193.4512u 
  121.30000p    1.0999    74.2648m -182.3472u 
  121.40000p    1.1000    72.3191m -148.7244u 
  121.50000p    1.1000    70.3734m -115.1017u 
  121.60000p    1.1000    68.4277m  -81.4789u 
  121.70000p    1.1000    66.4820m  -47.8562u 
  121.80000p    1.1000    64.5364m  -14.2334u 
  121.90000p    1.1000    62.5907m   19.3893u 
  122.00000p    1.1000    60.6450m   53.0121u 
  122.10000p    1.1000    58.6993m   86.6348u 
  122.20000p    1.1000    56.7536m  120.2576u 
  122.30000p    1.1000    54.8079m  153.8804u 
  122.40000p    1.1000    52.8622m  187.5031u 
  122.50000p    1.1000    50.9165m  221.1259u 
  122.60000p    1.1000    48.9708m  254.7486u 
  122.70000p    1.1001    47.0251m  288.3714u 
  122.80000p    1.1001    45.0795m  321.9941u 
  122.90000p    1.1001    43.1721m  359.9849u 
  123.00000p    1.1001    41.7546m  453.7586u 
  123.10000p    1.1001    40.3371m  547.5323u 
  123.20000p    1.1001    38.9196m  641.3060u 
  123.30000p    1.1001    37.5020m  735.0797u 
  123.40000p    1.1001    36.0845m  828.8534u 
  123.50000p    1.1001    34.6670m  922.6271u 
  123.60000p    1.1001    33.2495m    1.0164m 
  123.70000p    1.1002    31.8320m    1.1102m 
  123.80000p    1.1002    30.4144m    1.2039m 
  123.90000p    1.1002    28.9969m    1.2977m 
  124.00000p    1.1002    27.5794m    1.3915m 
  124.10000p    1.1002    26.1619m    1.4853m 
  124.20000p    1.1002    24.7444m    1.5790m 
  124.30000p    1.1002    23.3268m    1.6728m 
  124.40000p    1.1002    22.2394m    1.7855m 
  124.50000p    1.1002    21.3109m    1.9072m 
  124.60000p    1.1003    20.3823m    2.0290m 
  124.70000p    1.1003    19.4538m    2.1508m 
  124.80000p    1.1003    18.5909m    2.2717m 
  124.90000p    1.1003    17.7364m    2.3925m 
  125.00000p    1.1003    16.8819m    2.5134m 
  125.10000p    1.1003    16.1587m    2.5958m 
  125.20000p    1.1003    15.5610m    2.6414m 
  125.30000p    1.1003    14.9633m    2.6870m 
  125.40000p    1.1002    14.3656m    2.7326m 
  125.50000p    1.1002    13.7679m    2.7782m 
  125.60000p    1.1002    13.1702m    2.8239m 
  125.70000p    1.1002    12.5725m    2.8695m 
  125.80000p    1.1002    11.9748m    2.9151m 
  125.90000p    1.1002    11.3771m    2.9607m 
  126.00000p    1.1002    10.7794m    3.0063m 
  126.10000p    1.1002    10.1818m    3.0520m 
  126.20000p    1.1001     9.7851m    2.8906m 
  126.30000p    1.1001     9.4721m    2.6431m 
  126.40000p    1.1000     9.1590m    2.3957m 
  126.50000p    1.1000     8.8459m    2.1483m 
  126.60000p    1.0999     8.5328m    1.9009m 
  126.70000p    1.0999     8.2198m    1.6534m 
  126.80000p    1.0998     7.9067m    1.4060m 
  126.90000p    1.0998     7.5936m    1.1586m 
  127.00000p    1.0997     7.2805m  911.1669u 
  127.10000p    1.0996     6.9675m  663.7438u 
  127.20000p    1.0996     6.6544m  416.3206u 
  127.30000p    1.0995     6.3413m  168.8975u 
  127.40000p    1.0995     6.0283m  -78.5257u 
  127.50000p    1.0994     5.8222m -717.9443u 
  127.60000p    1.0993     5.6541m   -1.4960m 
  127.70000p    1.0992     5.4859m   -2.2741m 
  127.80000p    1.0991     5.3177m   -3.0521m 
  127.90000p    1.0990     5.1496m   -3.8302m 
  128.00000p    1.0989     4.9814m   -4.6083m 
  128.10000p    1.0988     4.8132m   -5.3863m 
  128.20000p    1.0987     4.6451m   -6.1644m 
  128.30000p    1.0987     4.4769m   -6.9424m 
  128.40000p    1.0986     4.3087m   -7.7205m 
  128.50000p    1.0985     4.1406m   -8.4986m 
  128.60000p    1.0984     3.9724m   -9.2766m 
  128.70000p    1.0983     3.8042m  -10.0547m 
  128.80000p    1.0982     3.6361m  -10.8328m 
  128.90000p    1.0981     3.4751m  -11.6011m 
  129.00000p    1.0981     3.3727m  -12.2900m 
  129.10000p    1.0981     3.2702m  -12.9788m 
  129.20000p    1.0981     3.1678m  -13.6677m 
  129.30000p    1.0981     3.0654m  -14.3566m 
  129.40000p    1.0981     2.9630m  -15.0455m 
  129.50000p    1.0981     2.8606m  -15.7343m 
  129.60000p    1.0981     2.7582m  -16.4232m 
  129.70000p    1.0981     2.6558m  -17.1121m 
  129.80000p    1.0981     2.5534m  -17.8009m 
  129.90000p    1.0981     2.4510m  -18.4898m 
  130.00000p    1.0981     2.3486m  -19.1787m 
  130.10000p    1.0981     2.2462m  -19.8676m 
  130.20000p    1.0981     2.1437m  -20.5564m 
  130.30000p    1.0981     2.0413m  -21.2453m 
  130.40000p    1.0981     1.9389m  -21.9342m 
  130.50000p    1.0981     1.8365m  -22.6230m 
  130.60000p    1.0981     1.7341m  -23.3119m 
  130.70000p    1.0986     1.6752m  -21.0678m 
  130.80000p    1.0991     1.6169m  -18.7845m 
  130.90000p    1.0996     1.5585m  -16.5011m 
  131.00000p    1.1001     1.5002m  -14.2178m 
  131.10000p    1.1006     1.4418m  -11.9345m 
  131.20000p    1.1011     1.3835m   -9.6511m 
  131.30000p    1.1016     1.3252m   -7.3678m 
  131.40000p    1.1021     1.2668m   -5.0845m 
  131.50000p    1.1026     1.2085m   -2.8011m 
  131.60000p    1.1032     1.1501m -517.7775u 
  131.70000p    1.1037     1.0918m    1.7656m 
  131.80000p    1.1042     1.0335m    4.0489m 
  131.90000p    1.1047   975.1131u    6.3322m 
  132.00000p    1.1052   916.7732u    8.6156m 
  132.10000p    1.1062   884.0460u   15.8580m 
  132.20000p    1.1076   863.4570u   25.4506m 
  132.30000p    1.1089   842.8680u   35.0431m 
  132.40000p    1.1102   822.2790u   44.6357m 
  132.50000p    1.1115   801.6900u   54.2283m 
  132.60000p    1.1128   781.1011u   63.8209m 
  132.70000p    1.1141   760.5121u   73.4134m 
  132.80000p    1.1155   739.9231u   83.0060m 
  132.90000p    1.1168   719.3341u   92.5986m 
  133.00000p    1.1181   698.7451u  102.1911m 
  133.10000p    1.1194   678.1561u  111.7837m 
  133.20000p    1.1207   657.5671u  121.3763m 
  133.30000p    1.1220   636.9781u  130.9689m 
  133.40000p    1.1234   616.3891u  140.5614m 
  133.50000p    1.1247   595.8001u  150.1540m 
  133.60000p    1.1260   575.2112u  159.7466m 
  133.70000p    1.1272   556.3901u  170.3515m 
  133.80000p    1.1276   546.3700u  185.9958m 
  133.90000p    1.1279   536.3499u  201.6401m 
  134.00000p    1.1283   526.3297u  217.2844m 
  134.10000p    1.1287   516.3096u  232.9287m 
  134.20000p    1.1291   506.2894u  248.5730m 
  134.30000p    1.1295   496.2693u  264.2172m 
  134.40000p    1.1299   486.2492u  279.8615m 
  134.50000p    1.1303   476.2290u  295.5058m 
  134.60000p    1.1307   466.2089u  311.1501m 
  134.70000p    1.1311   456.1887u  326.7944m 
  134.80000p    1.1315   446.1686u  342.4387m 
  134.90000p    1.1319   436.1484u  358.0830m 
  135.00000p    1.1323   426.1283u  373.7273m 
  135.10000p    1.1327   416.1082u  389.3715m 
  135.20000p    1.1331   406.0880u  405.0158m 
  135.30000p    1.1320   396.4426u  421.2256m 
  135.40000p    1.1280   387.5086u  438.5091m 
  135.50000p    1.1240   378.5747u  455.7926m 
  135.60000p    1.1200   369.6408u  473.0762m 
  135.70000p    1.1161   360.7068u  490.3597m 
  135.80000p    1.1121   351.7729u  507.6432m 
  135.90000p    1.1081   342.8390u  524.9267m 
  136.00000p    1.1041   333.9050u  542.2102m 
  136.10000p    1.1001   324.9711u  559.4937m 
  136.20000p    1.0962   316.0372u  576.7773m 
  136.30000p    1.0922   307.1032u  594.0608m 
  136.40000p    1.0882   298.1693u  611.3443m 
  136.50000p    1.0842   289.2354u  628.6278m 
  136.60000p    1.0803   280.3015u  645.9113m 
  136.70000p    1.0763   271.3675u  663.1949m 
  136.80000p    1.0723   262.4336u  680.4784m 
  136.90000p    1.0683   253.4997u  697.7619m 
  137.00000p    1.0644   244.5657u  715.0454m 
  137.10000p    1.0546   239.1557u  731.7697m 
  137.20000p    1.0445   234.0002u  748.4536m 
  137.30000p    1.0344   228.8448u  765.1375m 
  137.40000p    1.0243   223.6498u  781.7868m 
  137.50000p    1.0131   217.4453u  797.5526m 
  137.60000p    1.0019   211.2408u  813.3184m 
  137.70000p  990.6644m  205.0363u  829.0841m 
  137.80000p  977.8347m  199.7944u  842.3683m 
  137.90000p  963.6304m  195.3630u  853.5633m 
  138.00000p  949.4261m  190.9316u  864.7584m 
  138.10000p  935.2218m  186.5002u  875.9535m 
  138.20000p  921.0175m  182.0688u  887.1486m 
  138.30000p  906.8132m  177.6373u  898.3437m 
  138.40000p  892.6089m  173.2059u  909.5388m 
  138.50000p  878.4046m  168.7745u  920.7339m 
  138.60000p  864.2003m  164.3431u  931.9290m 
  138.70000p  849.9960m  159.9116u  943.1240m 
  138.80000p  835.7917m  155.4802u  954.3191m 
  138.90000p  821.0048m  151.7461u  963.4842m 
  139.00000p  805.1813m  149.2529u  969.0368m 
  139.10000p  789.3577m  146.7597u  974.5894m 
  139.20000p  773.5341m  144.2664u  980.1420m 
  139.30000p  757.7105m  141.7732u  985.6946m 
  139.40000p  741.8870m  139.2800u  991.2472m 
  139.50000p  726.0634m  136.7868u  996.7998m 
  139.60000p  710.2398m  134.2935u    1.0024  
  139.70000p  694.4162m  131.8003u    1.0079  
  139.80000p  678.5927m  129.3071u    1.0135  
  139.90000p  662.7691m  126.8138u    1.0190  
  140.00000p  646.9455m  124.3206u    1.0246  
  140.10000p  631.4213m  123.1675u    1.0276  
[...]
  162.30000p  231.8395u  753.4427m    1.1000  
  162.40000p  226.7425u  769.9657m    1.1000  
  162.50000p  221.6454u  786.4886m    1.1000  
  162.60000p  215.5705u  802.0936m    1.1000  
  162.70000p  209.4538u  817.6592m    1.1000  
  162.80000p  203.3370u  833.2249m    1.1000  
  162.90000p  198.0690u  846.6197m    1.1000  
  163.00000p  193.7353u  857.6245m    1.1000  
  163.10000p  189.4015u  868.6294m    1.1000  
  163.20000p  185.0678u  879.6342m    1.1000  
  163.30000p  180.7341u  890.6390m    1.1000  
  163.40000p  176.4004u  901.6438m    1.1000  
  163.50000p  172.0667u  912.6487m    1.1000  
  163.60000p  167.7330u  923.6535m    1.1000  
  163.70000p  163.3993u  934.6583m    1.1000  
  163.80000p  159.0656u  945.6632m    1.1000  
  163.90000p  154.7319u  956.6680m    1.1000  
  164.00000p  151.0271u  965.8267m    1.1000  
  164.10000p  148.5970u  971.2443m    1.1000  
  164.20000p  146.1669u  976.6620m    1.1000  
  164.30000p  143.7368u  982.0797m    1.1000  
  164.40000p  141.3067u  987.4973m    1.1001  
  164.50000p  138.8765u  992.9150m    1.1001  
  164.60000p  136.4464u  998.3327m    1.1001  
  164.70000p  134.0163u    1.0038     1.1001  
  164.80000p  131.5862u    1.0092     1.1001  
  164.90000p  129.1561u    1.0146     1.1001  
  165.00000p  126.7259u    1.0200     1.1001  
  165.10000p  124.2958u    1.0254     1.1001  
  165.20000p  122.9315u    1.0288     1.1001  
  165.30000p  122.1576u    1.0310     1.1002  
  165.40000p  121.3836u    1.0332     1.1002  
  165.50000p  120.6096u    1.0354     1.1002  
  165.60000p  119.8356u    1.0376     1.1002  
  165.70000p  119.0617u    1.0398     1.1002  
  165.80000p  118.2877u    1.0420     1.1002  
  165.90000p  117.5137u    1.0442     1.1002  
  166.00000p  116.7397u    1.0464     1.1002  
  166.10000p  115.9658u    1.0486     1.1002  
  166.20000p  115.1918u    1.0508     1.1002  
  166.30000p  114.4178u    1.0530     1.1003  
  166.40000p  113.6438u    1.0552     1.1003  
  166.50000p  112.8699u    1.0574     1.1003  
  166.60000p  111.6646u    1.0594     1.1003  
  166.70000p  108.4328u    1.0604     1.1003  
  166.80000p  105.2010u    1.0614     1.1002  
  166.90000p  101.9693u    1.0624     1.1002  
  167.00000p   98.7375u    1.0634     1.1002  
  167.10000p   95.5057u    1.0644     1.1002  
  167.20000p   92.2739u    1.0654     1.1002  
  167.30000p   89.0422u    1.0664     1.1002  
  167.40000p   85.8104u    1.0675     1.1002  
  167.50000p   82.5786u    1.0685     1.1001  
  167.60000p   79.3469u    1.0695     1.1001  
  167.70000p   76.1151u    1.0705     1.1001  
  167.80000p   72.8833u    1.0715     1.1001  
  167.90000p   69.6516u    1.0725     1.1001  
  168.00000p   66.4198u    1.0735     1.1001  
  168.10000p   63.1880u    1.0745     1.1001  
  168.20000p   58.6244u    1.0754     1.1000  
  168.30000p   51.2430u    1.0761     1.1000  
  168.40000p   43.8616u    1.0768     1.0999  
  168.50000p   36.4801u    1.0775     1.0999  
  168.60000p   29.0987u    1.0782     1.0998  
  168.70000p   21.7173u    1.0789     1.0997  
  168.80000p   14.3359u    1.0796     1.0997  
  168.90000p    6.9545u    1.0803     1.0996  
  169.00000p -426.9686n    1.0810     1.0996  
  169.10000p   -7.8084u    1.0817     1.0995  
  169.20000p  -15.1898u    1.0824     1.0995  
  169.30000p  -22.5712u    1.0830     1.0994  
  169.40000p  -29.9527u    1.0837     1.0993  
  169.50000p  -37.3341u    1.0844     1.0993  
  169.60000p  -44.7155u    1.0851     1.0992  
  169.70000p  -52.0969u    1.0858     1.0992  
  169.80000p  -59.4784u    1.0865     1.0991  
  169.90000p  -66.9673u    1.0872     1.0991  
  170.00000p  -74.9664u    1.0876     1.0989  
  170.10000p  -82.9654u    1.0880     1.0988  
  170.20000p  -90.9645u    1.0884     1.0987  
  170.30000p  -98.9635u    1.0888     1.0986  
  170.40000p -106.9626u    1.0892     1.0985  
  170.50000p -114.9616u    1.0896     1.0984  
  170.60000p -122.9607u    1.0900     1.0983  
  170.70000p -130.9597u    1.0904     1.0982  
  170.80000p -138.9587u    1.0908     1.0981  
  170.90000p -146.9578u    1.0912     1.0980  
  171.00000p -154.9568u    1.0916     1.0979  
  171.10000p -162.9559u    1.0920     1.0978  
  171.20000p -170.9549u    1.0924     1.0977  
  171.30000p -178.9540u    1.0928     1.0976  
  171.40000p -186.9530u    1.0932     1.0974  
  171.50000p -187.5676u    1.0935     1.0974  
  171.60000p -150.2385u    1.0937     1.0976  
  171.70000p -112.9094u    1.0938     1.0978  
  171.80000p  -75.5802u    1.0940     1.0980  
  171.90000p  -38.2511u    1.0941     1.0982  
  172.00000p -921.9962n    1.0943     1.0984  
  172.10000p   36.4071u    1.0944     1.0986  
  172.20000p   73.7362u    1.0946     1.0988  
  172.30000p  111.0654u    1.0947     1.0990  
  172.40000p  148.3945u    1.0948     1.0992  
  172.50000p  185.7236u    1.0950     1.0994  
  172.60000p  223.0527u    1.0951     1.0996  
  172.70000p  260.3819u    1.0953     1.0998  
  172.80000p  297.7110u    1.0954     1.1001  
  172.90000p  335.0401u    1.0956     1.1003  
  173.00000p  372.3692u    1.0957     1.1005  
  173.10000p  409.6984u    1.0959     1.1007  
  173.20000p  492.3754u    1.0960     1.1014  
  173.30000p  590.1786u    1.0960     1.1023  
  173.40000p  687.9817u    1.0961     1.1032  
  173.50000p  785.7849u    1.0962     1.1041  
  173.60000p  883.5880u    1.0963     1.1050  
  173.70000p  981.3912u    1.0964     1.1059  
  173.80000p    1.0792m    1.0964     1.1068  
  173.90000p    1.1770m    1.0965     1.1077  
  174.00000p    1.2748m    1.0966     1.1086  
  174.10000p    1.3726m    1.0967     1.1095  
  174.20000p    1.4704m    1.0968     1.1104  
  174.30000p    1.5682m    1.0968     1.1113  
  174.40000p    1.6660m    1.0969     1.1122  
  174.50000p    1.7638m    1.0970     1.1131  
  174.60000p    1.8562m    1.0971     1.1141  
  174.70000p    1.9376m    1.0972     1.1154  
  174.80000p    2.0190m    1.0972     1.1167  
  174.90000p    2.1004m    1.0973     1.1180  
  175.00000p    2.1819m    1.0974     1.1193  
  175.10000p    2.2633m    1.0975     1.1207  
  175.20000p    2.3447m    1.0976     1.1220  
  175.30000p    2.4261m    1.0976     1.1233  
  175.40000p    2.5076m    1.0977     1.1246  
  175.50000p    2.5890m    1.0978     1.1259  
  175.60000p    2.6704m    1.0979     1.1272  
  175.70000p    2.7518m    1.0980     1.1285  
  175.80000p    2.8332m    1.0980     1.1299  
  175.90000p    2.9147m    1.0981     1.1312  
  176.00000p    2.9961m    1.0982     1.1325  
  176.10000p    3.0775m    1.0983     1.1338  
  176.20000p    3.0812m    1.0984     1.1348  
  176.30000p    3.0137m    1.0984     1.1355  
  176.40000p    2.9462m    1.0985     1.1362  
  176.50000p    2.8543m    1.0986     1.1368  
  176.60000p    2.7009m    1.0986     1.1369  
  176.70000p    2.5476m    1.0987     1.1371  
  176.80000p    2.3943m    1.0987     1.1372  
  176.90000p    2.1596m    1.0988     1.1366  
  177.00000p    1.7425m    1.0988     1.1345  
  177.10000p    1.3253m    1.0989     1.1323  
  177.20000p  908.2124u    1.0989     1.1301  
  177.30000p  491.0806u    1.0990     1.1279  
  177.40000p   73.9488u    1.0990     1.1257  
  177.50000p -343.1830u    1.0990     1.1235  
  177.60000p -760.3148u    1.0991     1.1214  
  177.70000p   -1.1774m    1.0991     1.1192  
  177.80000p   -1.5946m    1.0992     1.1170  
  177.90000p   -2.0117m    1.0992     1.1148  
  178.00000p   -2.4288m    1.0993     1.1126  
  178.10000p   -2.9942m    1.0993     1.1087  
  178.20000p   -3.9628m    1.0993     1.1002  
  178.30000p   -4.9314m    1.0993     1.0916  
  178.40000p   -5.8999m    1.0994     1.0830  
  178.50000p   -6.8685m    1.0994     1.0745  
  178.60000p   -7.8371m    1.0994     1.0659  
  178.70000p   -8.8057m    1.0994     1.0574  
  178.80000p   -9.7743m    1.0995     1.0488  
  178.90000p  -10.7428m    1.0995     1.0403  
  179.00000p  -11.7114m    1.0995     1.0317  
  179.10000p  -12.6800m    1.0995     1.0231  
  179.20000p  -13.6486m    1.0995     1.0146  
  179.30000p  -14.6172m    1.0996     1.0060  
  179.40000p  -15.5857m    1.0996   997.4645m 
  179.50000p  -16.5543m    1.0996   988.9067m 
  179.60000p  -17.5229m    1.0996   980.3488m 
  179.70000p  -18.3928m    1.0997   971.2462m 
  179.80000p  -18.2340m    1.0997   956.4633m 
  179.90000p  -18.0752m    1.0997   941.6804m 
  180.00000p  -17.9163m    1.0997   926.8974m 
  180.10000p  -17.7575m    1.0997   912.1145m 
  180.20000p  -17.5986m    1.0997   897.3316m 
  180.30000p  -17.4398m    1.0997   882.5486m 
  180.40000p  -17.2810m    1.0997   867.7657m 
  180.50000p  -17.1221m    1.0997   852.9828m 
  180.60000p  -16.9633m    1.0997   838.1998m 
  180.70000p  -16.8044m    1.0997   823.4169m 
  180.80000p  -16.6456m    1.0997   808.6340m 
  180.90000p  -16.4868m    1.0998   793.8510m 
  181.00000p  -16.3279m    1.0998   779.0681m 
  181.10000p  -16.1691m    1.0998   764.2852m 
  181.20000p  -16.0102m    1.0998   749.5022m 
  181.30000p  -15.8514m    1.0998   734.7193m 
  181.40000p  -14.7242m    1.0998   719.6881m 
  181.50000p  -10.1144m    1.0998   703.7643m 
  181.60000p   -5.5046m    1.0998   687.8404m 
  181.70000p -894.7155u    1.0998   671.9165m 
  181.80000p    3.7151m    1.0998   655.9926m 
  181.90000p    8.3250m    1.0998   640.0688m 
  182.00000p   12.9348m    1.0998   624.1449m 
  182.10000p   17.5446m    1.0998   608.2210m 
  182.20000p   22.1545m    1.0999   592.2971m 
  182.30000p   26.7643m    1.0999   576.3733m 
  182.40000p   31.3741m    1.0999   560.4494m 
  182.50000p   35.9840m    1.0999   544.5255m 
  182.60000p   40.5938m    1.0999   528.6016m 
  182.70000p   45.2037m    1.0999   512.6778m 
  182.80000p   49.8135m    1.0999   496.7539m 
  182.90000p   61.5148m    1.0999   483.1288m 
  183.00000p   73.5748m    1.0999   469.6201m 
  183.10000p   85.6349m    1.0999   456.1114m 
  183.20000p   97.6949m    1.0999   442.6026m 
  183.30000p  109.7549m    1.0999   429.0939m 
  183.40000p  121.8150m    1.0999   415.5851m 
  183.50000p  133.8750m    1.0999   402.0764m 
  183.60000p  145.9351m    1.0999   388.5676m 
  183.70000p  157.9951m    1.0999   375.0589m 
  183.80000p  170.0552m    1.0999   361.5502m 
  183.90000p  182.1152m    1.0999   348.0414m 
  184.00000p  194.1753m    1.0999   334.5327m 
  184.10000p  206.2353m    1.0999   321.0239m 
  184.20000p  218.2953m    1.0999   307.5152m 
  184.30000p  230.3554m    1.1000   294.0065m 
  184.40000p  242.4154m    1.1000   280.4977m 
  184.50000p  258.8160m    1.1000   272.1011m 
  184.60000p  275.4813m    1.1000   264.0161m 
  184.70000p  292.1465m    1.1000   255.9311m 
  184.80000p  308.8117m    1.1000   247.8461m 
  184.90000p  325.4770m    1.1000   239.7611m 
  185.00000p  342.1422m    1.1000   231.6762m 
  185.10000p  358.8074m    1.1000   223.5912m 
  185.20000p  375.4726m    1.0999   215.5062m 
  185.30000p  392.1379m    1.0999   207.4212m 
  185.40000p  408.8031m    1.0999   199.3362m 
  185.50000p  425.4683m    1.0999   191.2513m 
  185.60000p  442.1336m    1.0999   183.1663m 
  185.70000p  458.7988m    1.0999   175.0813m 
  185.80000p  475.4640m    1.0999   166.9963m 
  185.90000p  492.1293m    1.0999   158.9113m 
  186.00000p  508.7945m    1.0999   150.8264m 
  186.10000p  525.6278m    1.0999   146.1615m 
  186.20000p  542.5081m    1.0999   142.4529m 
  186.30000p  559.3884m    1.0999   138.7443m 
  186.40000p  576.2687m    1.0999   135.0357m 
  186.50000p  593.1490m    1.0999   131.3271m 
  186.60000p  610.0293m    1.0999   127.6186m 
  186.70000p  626.9096m    1.0999   123.9100m 
  186.80000p  643.7899m    1.0999   120.2014m 
  186.90000p  660.6702m    1.0999   116.4928m 
  187.00000p  677.5505m    1.0999   112.7842m 
  187.10000p  694.4308m    1.0999   109.0756m 
  187.20000p  711.3111m    1.0999   105.3670m 
  187.30000p  728.1913m    1.0999   101.6584m 
  187.40000p  745.0716m    1.0999    97.9498m 
  187.50000p  761.9519m    1.0999    94.2412m 
  187.60000p  778.8322m    1.0999    90.5326m 
  187.70000p  795.7125m    1.0999    86.8240m 
  187.80000p  811.2176m    1.0999    83.5000m 
  187.90000p  822.2248m    1.1000    81.4339m 
  188.00000p  833.2320m    1.1000    79.3677m 
  188.10000p  844.2391m    1.1000    77.3015m 
  188.20000p  855.2463m    1.1000    75.2353m 
  188.30000p  866.2535m    1.1000    73.1692m 
  188.40000p  877.2607m    1.1000    71.1030m 
  188.50000p  888.2679m    1.1000    69.0368m 
  188.60000p  899.2751m    1.1000    66.9707m 
  188.70000p  910.2823m    1.1000    64.9045m 
  188.80000p  921.2895m    1.1000    62.8383m 
  188.90000p  932.2967m    1.1000    60.7722m 
  189.00000p  943.3039m    1.1000    58.7060m 
  189.10000p  954.3111m    1.1000    56.6398m 
  189.20000p  965.3183m    1.1000    54.5736m 
  189.30000p  976.3255m    1.1000    52.5075m 
  189.40000p  985.6202m    1.1000    50.5643m 
  189.50000p  989.6991m    1.1000    48.9956m 
  189.60000p  993.7780m    1.1000    47.4269m 
  189.70000p  997.8569m    1.1001    45.8583m 
  189.80000p    1.0019     1.1001    44.2896m 
  189.90000p    1.0060     1.1001    42.7209m 
  190.00000p    1.0101     1.1001    41.1523m 
  190.10000p    1.0142     1.1001    39.5836m 
  190.20000p    1.0183     1.1001    38.0149m 
  190.30000p    1.0223     1.1001    36.4463m 
  190.40000p    1.0264     1.1001    34.8776m 
  190.50000p    1.0305     1.1001    33.3089m 
  190.60000p    1.0346     1.1002    31.7403m 
  190.70000p    1.0386     1.1002    30.1716m 
  190.80000p    1.0427     1.1002    28.6029m 
  190.90000p    1.0459     1.1002    27.2557m 
  191.00000p    1.0473     1.1002    26.3200m 
  191.10000p    1.0487     1.1002    25.3843m 
  191.20000p    1.0501     1.1002    24.4486m 
  191.30000p    1.0515     1.1002    23.5129m 
  191.40000p    1.0529     1.1002    22.5772m 
  191.50000p    1.0543     1.1002    21.6415m 
  191.60000p    1.0557     1.1002    20.7058m 
  191.70000p    1.0571     1.1002    19.7701m 
  191.80000p    1.0585     1.1003    18.8344m 
  191.90000p    1.0599     1.1003    17.8987m 
  192.00000p    1.0613     1.1003    16.9630m 
  192.10000p    1.0627     1.1003    16.0272m 
  192.20000p    1.0642     1.1003    15.0915m 
  192.30000p    1.0656     1.1003    14.1558m 
  192.40000p    1.0670     1.1003    13.2201m 
  192.50000p    1.0682     1.1003    12.4236m 
  192.60000p    1.0690     1.1003    12.0281m 
  192.70000p    1.0699     1.1002    11.6327m 
  192.80000p    1.0707     1.1002    11.2373m 
  192.90000p    1.0715     1.1001    10.8419m 
  193.00000p    1.0723     1.1001    10.4464m 
  193.10000p    1.0731     1.1001    10.0510m 
  193.20000p    1.0740     1.1000     9.6556m 
  193.30000p    1.0748     1.1000     9.2602m 
  193.40000p    1.0756     1.0999     8.8647m 
  193.50000p    1.0764     1.0999     8.4693m 
  193.60000p    1.0772     1.0999     8.0739m 
  193.70000p    1.0780     1.0998     7.6785m 
  193.80000p    1.0789     1.0998     7.2830m 
  193.90000p    1.0797     1.0997     6.8876m 
  194.00000p    1.0805     1.0997     6.4922m 
  194.10000p    1.0812     1.0997     6.1584m 
  194.20000p    1.0818     1.0996     5.9923m 
  194.30000p    1.0824     1.0995     5.8262m 
  194.40000p    1.0829     1.0994     5.6602m 
  194.50000p    1.0835     1.0993     5.4941m 
  194.60000p    1.0840     1.0992     5.3281m 
  194.70000p    1.0846     1.0991     5.1620m 
  194.80000p    1.0852     1.0991     4.9960m 
  194.90000p    1.0857     1.0990     4.8299m 
  195.00000p    1.0863     1.0989     4.6638m 
  195.10000p    1.0868     1.0988     4.4978m 
  195.20000p    1.0874     1.0987     4.3317m 
  195.30000p    1.0879     1.0986     4.1657m 
  195.40000p    1.0885     1.0986     3.9996m 
  195.50000p    1.0891     1.0985     3.8336m 
  195.60000p    1.0896     1.0984     3.6675m 
  195.70000p    1.0902     1.0983     3.5015m 
  195.80000p    1.0907     1.0982     3.3354m 
  195.90000p    1.0911     1.0982     3.2226m 
  196.00000p    1.0913     1.0982     3.1261m 
  196.10000p    1.0916     1.0981     3.0295m 
  196.20000p    1.0918     1.0981     2.9330m 
  196.30000p    1.0921     1.0981     2.8365m 
  196.40000p    1.0924     1.0981     2.7399m 
  196.50000p    1.0926     1.0980     2.6434m 
  196.60000p    1.0929     1.0980     2.5469m 
  196.70000p    1.0931     1.0980     2.4503m 
  196.80000p    1.0934     1.0980     2.3538m 
  196.90000p    1.0937     1.0979     2.2573m 
  197.00000p    1.0939     1.0979     2.1607m 
  197.10000p    1.0942     1.0979     2.0642m 
  197.20000p    1.0944     1.0979     1.9677m 
  197.30000p    1.0947     1.0978     1.8712m 
  197.40000p    1.0950     1.0978     1.7746m 
  197.50000p    1.0951     1.0982     1.7094m 
  197.60000p    1.0952     1.0987     1.6511m 
  197.70000p    1.0953     1.0992     1.5928m 
  197.80000p    1.0954     1.0996     1.5345m 
  197.90000p    1.0955     1.1001     1.4762m 
  198.00000p    1.0955     1.1006     1.4179m 
  198.10000p    1.0956     1.1011     1.3596m 
  198.20000p    1.0957     1.1016     1.3013m 
  198.30000p    1.0958     1.1020     1.2430m 
  198.40000p    1.0959     1.1025     1.1847m 
  198.50000p    1.0960     1.1030     1.1264m 
  198.60000p    1.0961     1.1035     1.0681m 
  198.70000p    1.0962     1.1040     1.0098m 
  198.80000p    1.0963     1.1044   951.4730u 
  198.90000p    1.0964     1.1049   893.1698u 
  199.00000p    1.0965     1.1058   854.5684u 
  199.10000p    1.0966     1.1070   832.9074u 
  199.20000p    1.0966     1.1082   811.2464u 
  199.30000p    1.0967     1.1094   789.5854u 
  199.40000p    1.0968     1.1106   767.9245u 
  199.50000p    1.0969     1.1119   746.2635u 
  199.60000p    1.0970     1.1131   724.6025u 
  199.70000p    1.0971     1.1143   702.9415u 
  199.80000p    1.0971     1.1155   681.2805u 
  199.90000p    1.0972     1.1167   659.6195u 
  200.00000p    1.0973     1.1179   637.9585u 
y
 t1=  94.2330p
 t2= 186.2444p
 period=  92.0114p
 tau_ps=   4.1823p
 frequency=  10.8682g

          ***** job concluded
 ******  
 ** ring oscillator tau measurement

 ****** job statistics summary tnom=  25.000 temp=  25.000 ******
  
 ******  Machine Information  ******
 CPU:
 model name	: Intel(R) Xeon(R) Silver 4216 CPU @ 2.10GHz
 cpu MHz	: 3200.000
 CPU(s)		: 64
  
 OS:
 Linux version 4.18.0-553.16.1.el8_10.x86_64 (mockbuild@x86-64-01.build.eng.rdu2.redhat.com) (gcc version 8.5.0 20210514 (Red Hat 8.5.0-22) (GCC)) #1 SMP Thu Aug 1 04:16:12 EDT 2024

 System loadavg : 0.11 0.14 0.17 2/2572 3727183


  ******  PrimeSim HSPICE Threads Information  ******

  Command Line Threads Count :     1
  Available CPU Count        :    64
  Actual Threads Count       :     1


  ******  Circuit Statistics  ******
  # nodes       =     101 # elements   =      23
  # resistors   =       0 # capacitors =       0 # inductors   =       0
  # mutual_inds =       0 # vccs       =       0 # vcvs        =       0
  # cccs        =       0 # ccvs       =       0 # volt_srcs   =       1
  # curr_srcs   =       0 # diodes     =       0 # bjts        =       0
  # jfets       =       0 # mosfets    =      22 # U elements  =       0
  # T elements  =       0 # W elements =       0 # B elements  =       0
  # S elements  =       0 # P elements =       0 # va device   =       0
  # vector_srcs =       0 # N elements =       0


  ******  Runtime Statistics (seconds)  ******

  analysis           time    # points   tot. iter  conv.iter
  op point           0.00           1           5
  transient          0.02        2001         431         152 rev=         0
  readin             0.01
  errchk             0.00
  setup              0.00
  output             0.00


           peak memory used        512.30 megabytes
           total cpu time            0.04 seconds
           total elapsed time        0.10 seconds
           job started at     18:57:23 11/06/2025
           job ended   at     18:57:23 11/06/2025

>info:         ***** hspice job concluded
           job total runtime         0.10 seconds


 lic: Release hspice token(s) 
 lic: total license checkout elapse time:        0.04(s)
