$DATA1 SOURCE='PrimeSim HSPICE' VERSION='T-2022.06-3 linux64' PARAM_COUNT=0
.TITLE '** half adder accumulator spice netlist with testbench'
 tpdr_sout        tpdf_sout        tpdr_cout        tr_sout         
 tf_sout          tr_cout          sout_max         cout_max        
 temper           alter#          
  4.719e-11          failed           failed           failed       
    failed         3.519e-11        7.875e-01        1.100e+00      
  2.500e+01       1               
