$DATA1 SOURCE='PrimeSim HSPICE' VERSION='T-2022.06-3 linux64' PARAM_COUNT=0
.TITLE '** testbench for hold time analysis (failing case - v3)'
 t_clk_edge       t_rst_edge       rst_delay        temper          
 alter#          
  2.015e-09        1.985e-09       -3.000e-11         25.0000       
1               
