$DATA1 SOURCE='PrimeSim HSPICE' VERSION='T-2022.06-3 linux64' PARAM_COUNT=0
.TITLE '** measure tau (parasitic delay)'
 tau              temper           alter#          
  4.964e-12         25.0000        1               
