$DATA1 SOURCE='PrimeSim HSPICE' VERSION='T-2022.06-3 linux64' PARAM_COUNT=0
.TITLE '** d flip-flop test file'
 tpd_clk_to_q     temper           alter#          
  3.028e-09        2.500e+01       1               
