$DATA1 SOURCE='PrimeSim HSPICE' VERSION='T-2022.06-3 linux64' PARAM_COUNT=0
.TITLE '** rst-ff testbench for hspice'
 sout_max         sout_min         tpd_clk_to_q     temper          
 alter#          
  1.101e+00       -2.287e-03        2.063e-09        2.500e+01      
1               
