*
*
*
*                       LINUX           Sun Nov 16 18:14:52 2025
*
*
*
*  PROGRAM  advgen
*
*  Name           : advgen - Quantus - (64-bit)
*  Version        : 24.1.0-p089
*  Build Date     : Wed Dec 18 09:06:09 PST 2024
*
*  HSPICE LIBRARY
*
*  QRC_TECH_DIR /ece558_658/pdk/verification/qrc/typical 
*
*
*

*
.SUBCKT BIT_ACCUM CIN COUT GND PHI RST SOUT0 SOUT1 SOUT2 SOUT3 VDD
*
*
*  caps2d version: 10
*
*
*       TRANSISTOR CARDS
*
*
MXI3/XI0/XI0/XI1/MNM0	XI3/XI0/XI0/BNOT#8	SOUT3#3	GND#71	GND
+ g45n1svt	L=4.5e-08	W=1.2e-07
+ AD=1.68e-14	AS=1.68e-14	PD=5.2e-07	PS=5.2e-07
+ sa=1.4e-07 sb=1.4e-07 sca=5.52044 scb=0.00152619 scc=3.72446e-06 fw=1.2e-07
MXI3/XI1/XI5/MNM1	XI3/XI1/XI5/net13	XI3/net1	GND#73	GND
+ g45n1svt	L=4.5e-08	W=2.4e-07
+ AD=3.36e-14	AS=3.36e-14	PD=7.6e-07	PS=7.6e-07
+ sa=1.4e-07 sb=1.4e-07 sca=3.52678 scb=0.000111658 scc=3.66286e-09 fw=2.4e-07
MXI3/XI0/XI1/XI0/MNM1	XI3/XI0/XI1/XI0/net13#5	SOUT3#4	GND#75
+ GND	g45n1svt	L=4.5e-08	W=2.4e-07
+ AD=3.36e-14	AS=3.36e-14	PD=7.6e-07	PS=7.6e-07
+ sa=1.4e-07 sb=1.4e-07 sca=3.52678 scb=0.000111658 scc=3.66286e-09 fw=2.4e-07
MXI3/XI1/XI4/MNM0	XI3/XI1/XI4/net24#5	XI3/XI1/XI4/PHINOT#3
+ XI3/XI1/XI4/net36	GND	g45n1svt	L=4.5e-08	W=2.4e-07
+ AD=3.36e-14	AS=1.44e-14	PD=7.6e-07	PS=6e-07
+ sa=1.4e-07 sb=2.45e-07 sca=3.52678 scb=0.000111658 scc=3.66286e-09 fw=2.4e-07
MXI3/XI1/XI4/MNM3	XI3/XI1/XI4/net36	XI3/XI1/D	GND#77	GND
+ g45n1svt	L=4.5e-08	W=2.4e-07
+ AD=1.44e-14	AS=3.36e-14	PD=6e-07	PS=7.6e-07
+ sa=2.45e-07 sb=1.4e-07 sca=3.52678 scb=0.000111658 scc=3.66286e-09 fw=2.4e-07
MXI3/XI0/XI0/MNM2	XI3/XI0/XI0/net15	XI3/XI0/XI0/BNOT	GND#79
+ GND	g45n1svt	L=4.5e-08	W=2.4e-07
+ AD=1.44e-14	AS=3.36e-14	PD=6e-07	PS=7.6e-07
+ sa=1.4e-07 sb=2.45e-07 sca=5.51597 scb=0.00169014 scc=6.16736e-06 fw=2.4e-07
MXI3/XI0/XI0/MNM0	XI3/net1#17	XI3/XI0/XI0/ANOT#3
+ XI3/XI0/XI0/net15	GND	g45n1svt	L=4.5e-08	W=2.4e-07
+ AD=3.36e-14	AS=1.44e-14	PD=7.6e-07	PS=6e-07
+ sa=2.45e-07 sb=1.4e-07 sca=5.51597 scb=0.00169014 scc=6.16736e-06 fw=2.4e-07
MXI3/XI0/XI1/XI0/MNM0	XI3/XI0/XI1/net2#10	net21#4
+ XI3/XI0/XI1/XI0/net13	GND	g45n1svt	L=4.5e-08	W=2.4e-07
+ AD=3.36e-14	AS=3.36e-14	PD=7.6e-07	PS=7.6e-07
+ sa=1.4e-07 sb=1.4e-07 sca=3.52678 scb=0.000111658 scc=3.66286e-09 fw=2.4e-07
MXI3/XI1/XI4/MNM2	XI3/XI1/XI4/net25	XI3/XI1/XI4/net24#3	GND#81
+ GND	g45n1svt	L=4.5e-08	W=2.4e-07
+ AD=1.44e-14	AS=3.36e-14	PD=6e-07	PS=7.6e-07
+ sa=1.4e-07 sb=2.45e-07 sca=3.52678 scb=0.000111658 scc=3.66286e-09 fw=2.4e-07
MXI3/XI1/XI4/MNM1	XI3/XI1/Q#8	PHI#24	XI3/XI1/XI4/net25	GND
+ g45n1svt	L=4.5e-08	W=2.4e-07
+ AD=3.36e-14	AS=1.44e-14	PD=7.6e-07	PS=6e-07
+ sa=2.45e-07 sb=1.4e-07 sca=3.52678 scb=0.000111658 scc=3.66286e-09 fw=2.4e-07
MXI3/XI0/XI0/MNM1	XI3/net1#13	net21#9	XI3/XI0/XI0/net18
+ GND	g45n1svt	L=4.5e-08	W=2.4e-07
+ AD=3.36e-14	AS=1.44e-14	PD=7.6e-07	PS=6e-07
+ sa=1.4e-07 sb=2.45e-07 sca=5.51597 scb=0.00169014 scc=6.16736e-06 fw=2.4e-07
MXI3/XI1/XI6/MNM0	SOUT3#17	XI3/XI1/Q#3	GND#83	GND
+ g45n1svt	L=4.5e-08	W=1.2e-07
+ AD=1.68e-14	AS=1.68e-14	PD=5.2e-07	PS=5.2e-07
+ sa=1.4e-07 sb=1.4e-07 sca=3.69959 scb=0.00013007 scc=4.39142e-09 fw=1.2e-07
MXI3/XI0/XI0/MNM3	XI3/XI0/XI0/net18	SOUT3#9	GND#87	GND
+ g45n1svt	L=4.5e-08	W=2.4e-07
+ AD=1.44e-14	AS=3.36e-14	PD=6e-07	PS=7.6e-07
+ sa=2.45e-07 sb=1.4e-07 sca=5.51597 scb=0.00169014 scc=6.16736e-06 fw=2.4e-07
MXI3/XI0/XI1/XI2/MNM0	COUT#4	XI3/XI0/XI1/net2	GND#85	GND
+ g45n1svt	L=4.5e-08	W=1.2e-07
+ AD=1.68e-14	AS=1.68e-14	PD=5.2e-07	PS=5.2e-07
+ sa=1.4e-07 sb=1.4e-07 sca=3.69959 scb=0.00013007 scc=4.39142e-09 fw=1.2e-07
MXI2/XI0/XI0/XI1/MNM0	XI2/XI0/XI0/BNOT#8	SOUT2#3	GND#49	GND
+ g45n1svt	L=4.5e-08	W=1.2e-07
+ AD=1.68e-14	AS=1.68e-14	PD=5.2e-07	PS=5.2e-07
+ sa=1.4e-07 sb=1.4e-07 sca=5.52044 scb=0.00152619 scc=3.72446e-06 fw=1.2e-07
MXI2/XI1/XI5/MNM1	XI2/XI1/XI5/net13	XI2/net1	GND#51	GND
+ g45n1svt	L=4.5e-08	W=2.4e-07
+ AD=3.36e-14	AS=3.36e-14	PD=7.6e-07	PS=7.6e-07
+ sa=1.4e-07 sb=1.4e-07 sca=3.52678 scb=0.000111658 scc=3.66286e-09 fw=2.4e-07
MXI2/XI0/XI1/XI0/MNM1	XI2/XI0/XI1/XI0/net13#5	SOUT2#4	GND#53
+ GND	g45n1svt	L=4.5e-08	W=2.4e-07
+ AD=3.36e-14	AS=3.36e-14	PD=7.6e-07	PS=7.6e-07
+ sa=1.4e-07 sb=1.4e-07 sca=3.52678 scb=0.000111658 scc=3.66286e-09 fw=2.4e-07
MXI2/XI1/XI4/MNM0	XI2/XI1/XI4/net24#5	XI2/XI1/XI4/PHINOT#3
+ XI2/XI1/XI4/net36	GND	g45n1svt	L=4.5e-08	W=2.4e-07
+ AD=3.36e-14	AS=1.44e-14	PD=7.6e-07	PS=6e-07
+ sa=1.4e-07 sb=2.45e-07 sca=3.52678 scb=0.000111658 scc=3.66286e-09 fw=2.4e-07
MXI2/XI1/XI4/MNM3	XI2/XI1/XI4/net36	XI2/XI1/D	GND#55	GND
+ g45n1svt	L=4.5e-08	W=2.4e-07
+ AD=1.44e-14	AS=3.36e-14	PD=6e-07	PS=7.6e-07
+ sa=2.45e-07 sb=1.4e-07 sca=3.52678 scb=0.000111658 scc=3.66286e-09 fw=2.4e-07
MXI2/XI0/XI0/MNM2	XI2/XI0/XI0/net15	XI2/XI0/XI0/BNOT	GND#57
+ GND	g45n1svt	L=4.5e-08	W=2.4e-07
+ AD=1.44e-14	AS=3.36e-14	PD=6e-07	PS=7.6e-07
+ sa=1.4e-07 sb=2.45e-07 sca=5.51597 scb=0.00169014 scc=6.16736e-06 fw=2.4e-07
MXI2/XI0/XI0/MNM0	XI2/net1#17	XI2/XI0/XI0/ANOT#3
+ XI2/XI0/XI0/net15	GND	g45n1svt	L=4.5e-08	W=2.4e-07
+ AD=3.36e-14	AS=1.44e-14	PD=7.6e-07	PS=6e-07
+ sa=2.45e-07 sb=1.4e-07 sca=5.51597 scb=0.00169014 scc=6.16736e-06 fw=2.4e-07
MXI2/XI0/XI1/XI0/MNM0	XI2/XI0/XI1/net2#10	net14#4
+ XI2/XI0/XI1/XI0/net13	GND	g45n1svt	L=4.5e-08	W=2.4e-07
+ AD=3.36e-14	AS=3.36e-14	PD=7.6e-07	PS=7.6e-07
+ sa=1.4e-07 sb=1.4e-07 sca=3.52678 scb=0.000111658 scc=3.66286e-09 fw=2.4e-07
MXI2/XI1/XI4/MNM2	XI2/XI1/XI4/net25	XI2/XI1/XI4/net24#3	GND#59
+ GND	g45n1svt	L=4.5e-08	W=2.4e-07
+ AD=1.44e-14	AS=3.36e-14	PD=6e-07	PS=7.6e-07
+ sa=1.4e-07 sb=2.45e-07 sca=3.52678 scb=0.000111658 scc=3.66286e-09 fw=2.4e-07
MXI2/XI1/XI4/MNM1	XI2/XI1/Q#8	PHI#18	XI2/XI1/XI4/net25	GND
+ g45n1svt	L=4.5e-08	W=2.4e-07
+ AD=3.36e-14	AS=1.44e-14	PD=7.6e-07	PS=6e-07
+ sa=2.45e-07 sb=1.4e-07 sca=3.52678 scb=0.000111658 scc=3.66286e-09 fw=2.4e-07
MXI2/XI0/XI0/MNM1	XI2/net1#13	net14#9	XI2/XI0/XI0/net18
+ GND	g45n1svt	L=4.5e-08	W=2.4e-07
+ AD=3.36e-14	AS=1.44e-14	PD=7.6e-07	PS=6e-07
+ sa=1.4e-07 sb=2.45e-07 sca=5.51597 scb=0.00169014 scc=6.16736e-06 fw=2.4e-07
MXI2/XI1/XI6/MNM0	SOUT2#17	XI2/XI1/Q#3	GND#61	GND
+ g45n1svt	L=4.5e-08	W=1.2e-07
+ AD=1.68e-14	AS=1.68e-14	PD=5.2e-07	PS=5.2e-07
+ sa=1.4e-07 sb=1.4e-07 sca=3.69959 scb=0.00013007 scc=4.39142e-09 fw=1.2e-07
MXI2/XI0/XI0/MNM3	XI2/XI0/XI0/net18	SOUT2#9	GND#65	GND
+ g45n1svt	L=4.5e-08	W=2.4e-07
+ AD=1.44e-14	AS=3.36e-14	PD=6e-07	PS=7.6e-07
+ sa=2.45e-07 sb=1.4e-07 sca=5.51597 scb=0.00169014 scc=6.16736e-06 fw=2.4e-07
MXI2/XI0/XI1/XI2/MNM0	net21#13	XI2/XI0/XI1/net2	GND#63	GND
+ g45n1svt	L=4.5e-08	W=1.2e-07
+ AD=1.68e-14	AS=1.68e-14	PD=5.2e-07	PS=5.2e-07
+ sa=1.4e-07 sb=1.4e-07 sca=3.69959 scb=0.00013007 scc=4.39142e-09 fw=1.2e-07
MXI1/XI0/XI0/XI1/MNM0	XI1/XI0/XI0/BNOT#8	SOUT1#3	GND#27	GND
+ g45n1svt	L=4.5e-08	W=1.2e-07
+ AD=1.68e-14	AS=1.68e-14	PD=5.2e-07	PS=5.2e-07
+ sa=1.4e-07 sb=1.4e-07 sca=5.52044 scb=0.00152619 scc=3.72446e-06 fw=1.2e-07
MXI1/XI1/XI5/MNM1	XI1/XI1/XI5/net13	XI1/net1	GND#29	GND
+ g45n1svt	L=4.5e-08	W=2.4e-07
+ AD=3.36e-14	AS=3.36e-14	PD=7.6e-07	PS=7.6e-07
+ sa=1.4e-07 sb=1.4e-07 sca=3.52678 scb=0.000111658 scc=3.66286e-09 fw=2.4e-07
MXI1/XI0/XI1/XI0/MNM1	XI1/XI0/XI1/XI0/net13#5	SOUT1#4	GND#31
+ GND	g45n1svt	L=4.5e-08	W=2.4e-07
+ AD=3.36e-14	AS=3.36e-14	PD=7.6e-07	PS=7.6e-07
+ sa=1.4e-07 sb=1.4e-07 sca=3.52678 scb=0.000111658 scc=3.66286e-09 fw=2.4e-07
MXI1/XI1/XI4/MNM0	XI1/XI1/XI4/net24#5	XI1/XI1/XI4/PHINOT#3
+ XI1/XI1/XI4/net36	GND	g45n1svt	L=4.5e-08	W=2.4e-07
+ AD=3.36e-14	AS=1.44e-14	PD=7.6e-07	PS=6e-07
+ sa=1.4e-07 sb=2.45e-07 sca=3.52678 scb=0.000111658 scc=3.66286e-09 fw=2.4e-07
MXI1/XI1/XI4/MNM3	XI1/XI1/XI4/net36	XI1/XI1/D	GND#33	GND
+ g45n1svt	L=4.5e-08	W=2.4e-07
+ AD=1.44e-14	AS=3.36e-14	PD=6e-07	PS=7.6e-07
+ sa=2.45e-07 sb=1.4e-07 sca=3.52678 scb=0.000111658 scc=3.66286e-09 fw=2.4e-07
MXI1/XI0/XI0/MNM2	XI1/XI0/XI0/net15	XI1/XI0/XI0/BNOT	GND#35
+ GND	g45n1svt	L=4.5e-08	W=2.4e-07
+ AD=1.44e-14	AS=3.36e-14	PD=6e-07	PS=7.6e-07
+ sa=1.4e-07 sb=2.45e-07 sca=5.51597 scb=0.00169014 scc=6.16736e-06 fw=2.4e-07
MXI1/XI0/XI0/MNM0	XI1/net1#17	XI1/XI0/XI0/ANOT#3
+ XI1/XI0/XI0/net15	GND	g45n1svt	L=4.5e-08	W=2.4e-07
+ AD=3.36e-14	AS=1.44e-14	PD=7.6e-07	PS=6e-07
+ sa=2.45e-07 sb=1.4e-07 sca=5.51597 scb=0.00169014 scc=6.16736e-06 fw=2.4e-07
MXI1/XI0/XI1/XI0/MNM0	XI1/XI0/XI1/net2#10	net7#4	XI1/XI0/XI1/XI0/net13
+ GND	g45n1svt	L=4.5e-08	W=2.4e-07
+ AD=3.36e-14	AS=3.36e-14	PD=7.6e-07	PS=7.6e-07
+ sa=1.4e-07 sb=1.4e-07 sca=3.52678 scb=0.000111658 scc=3.66286e-09 fw=2.4e-07
MXI1/XI1/XI4/MNM2	XI1/XI1/XI4/net25	XI1/XI1/XI4/net24#3	GND#37
+ GND	g45n1svt	L=4.5e-08	W=2.4e-07
+ AD=1.44e-14	AS=3.36e-14	PD=6e-07	PS=7.6e-07
+ sa=1.4e-07 sb=2.45e-07 sca=3.52678 scb=0.000111658 scc=3.66286e-09 fw=2.4e-07
MXI1/XI1/XI4/MNM1	XI1/XI1/Q#8	PHI#12	XI1/XI1/XI4/net25	GND
+ g45n1svt	L=4.5e-08	W=2.4e-07
+ AD=3.36e-14	AS=1.44e-14	PD=7.6e-07	PS=6e-07
+ sa=2.45e-07 sb=1.4e-07 sca=3.52678 scb=0.000111658 scc=3.66286e-09 fw=2.4e-07
MXI1/XI0/XI0/MNM1	XI1/net1#13	net7#9	XI1/XI0/XI0/net18	GND
+ g45n1svt	L=4.5e-08	W=2.4e-07
+ AD=3.36e-14	AS=1.44e-14	PD=7.6e-07	PS=6e-07
+ sa=1.4e-07 sb=2.45e-07 sca=5.51597 scb=0.00169014 scc=6.16736e-06 fw=2.4e-07
MXI1/XI1/XI6/MNM0	SOUT1#17	XI1/XI1/Q#3	GND#39	GND
+ g45n1svt	L=4.5e-08	W=1.2e-07
+ AD=1.68e-14	AS=1.68e-14	PD=5.2e-07	PS=5.2e-07
+ sa=1.4e-07 sb=1.4e-07 sca=3.69959 scb=0.00013007 scc=4.39142e-09 fw=1.2e-07
MXI1/XI0/XI0/MNM3	XI1/XI0/XI0/net18	SOUT1#9	GND#43	GND
+ g45n1svt	L=4.5e-08	W=2.4e-07
+ AD=1.44e-14	AS=3.36e-14	PD=6e-07	PS=7.6e-07
+ sa=2.45e-07 sb=1.4e-07 sca=5.51597 scb=0.00169014 scc=6.16736e-06 fw=2.4e-07
MXI1/XI0/XI1/XI2/MNM0	net14#13	XI1/XI0/XI1/net2	GND#41	GND
+ g45n1svt	L=4.5e-08	W=1.2e-07
+ AD=1.68e-14	AS=1.68e-14	PD=5.2e-07	PS=5.2e-07
+ sa=1.4e-07 sb=1.4e-07 sca=3.69959 scb=0.00013007 scc=4.39142e-09 fw=1.2e-07
MXI0/XI0/XI0/XI1/MNM0	XI0/XI0/XI0/BNOT#8	SOUT0#3	GND#5	GND
+ g45n1svt	L=4.5e-08	W=1.2e-07
+ AD=1.68e-14	AS=1.68e-14	PD=5.2e-07	PS=5.2e-07
+ sa=1.4e-07 sb=1.4e-07 sca=5.52044 scb=0.00152619 scc=3.72446e-06 fw=1.2e-07
MXI0/XI1/XI5/MNM1	XI0/XI1/XI5/net13	XI0/net1	GND#7	GND
+ g45n1svt	L=4.5e-08	W=2.4e-07
+ AD=3.36e-14	AS=3.36e-14	PD=7.6e-07	PS=7.6e-07
+ sa=1.4e-07 sb=1.4e-07 sca=3.52678 scb=0.000111658 scc=3.66286e-09 fw=2.4e-07
MXI0/XI0/XI1/XI0/MNM1	XI0/XI0/XI1/XI0/net13#5	SOUT0#4	GND#9
+ GND	g45n1svt	L=4.5e-08	W=2.4e-07
+ AD=3.36e-14	AS=3.36e-14	PD=7.6e-07	PS=7.6e-07
+ sa=1.4e-07 sb=1.4e-07 sca=3.52678 scb=0.000111658 scc=3.66286e-09 fw=2.4e-07
MXI0/XI1/XI4/MNM0	XI0/XI1/XI4/net24#5	XI0/XI1/XI4/PHINOT#3
+ XI0/XI1/XI4/net36	GND	g45n1svt	L=4.5e-08	W=2.4e-07
+ AD=3.36e-14	AS=1.44e-14	PD=7.6e-07	PS=6e-07
+ sa=1.4e-07 sb=2.45e-07 sca=3.52678 scb=0.000111658 scc=3.66286e-09 fw=2.4e-07
MXI0/XI1/XI4/MNM3	XI0/XI1/XI4/net36	XI0/XI1/D	GND#11	GND
+ g45n1svt	L=4.5e-08	W=2.4e-07
+ AD=1.44e-14	AS=3.36e-14	PD=6e-07	PS=7.6e-07
+ sa=2.45e-07 sb=1.4e-07 sca=3.52678 scb=0.000111658 scc=3.66286e-09 fw=2.4e-07
MXI0/XI0/XI0/MNM2	XI0/XI0/XI0/net15	XI0/XI0/XI0/BNOT	GND#13
+ GND	g45n1svt	L=4.5e-08	W=2.4e-07
+ AD=1.44e-14	AS=3.36e-14	PD=6e-07	PS=7.6e-07
+ sa=1.4e-07 sb=2.45e-07 sca=5.51597 scb=0.00169014 scc=6.16736e-06 fw=2.4e-07
MXI0/XI0/XI0/MNM0	XI0/net1#17	XI0/XI0/XI0/ANOT#3
+ XI0/XI0/XI0/net15	GND	g45n1svt	L=4.5e-08	W=2.4e-07
+ AD=3.36e-14	AS=1.44e-14	PD=7.6e-07	PS=6e-07
+ sa=2.45e-07 sb=1.4e-07 sca=5.51597 scb=0.00169014 scc=6.16736e-06 fw=2.4e-07
MXI0/XI0/XI1/XI0/MNM0	XI0/XI0/XI1/net2#10	CIN#4	XI0/XI0/XI1/XI0/net13
+ GND	g45n1svt	L=4.5e-08	W=2.4e-07
+ AD=3.36e-14	AS=3.36e-14	PD=7.6e-07	PS=7.6e-07
+ sa=1.4e-07 sb=1.4e-07 sca=3.52678 scb=0.000111658 scc=3.66286e-09 fw=2.4e-07
MXI0/XI1/XI4/MNM2	XI0/XI1/XI4/net25	XI0/XI1/XI4/net24#3	GND#15
+ GND	g45n1svt	L=4.5e-08	W=2.4e-07
+ AD=1.44e-14	AS=3.36e-14	PD=6e-07	PS=7.6e-07
+ sa=1.4e-07 sb=2.45e-07 sca=3.52678 scb=0.000111658 scc=3.66286e-09 fw=2.4e-07
MXI0/XI1/XI4/MNM1	XI0/XI1/Q#8	PHI#6	XI0/XI1/XI4/net25	GND
+ g45n1svt	L=4.5e-08	W=2.4e-07
+ AD=3.36e-14	AS=1.44e-14	PD=7.6e-07	PS=6e-07
+ sa=2.45e-07 sb=1.4e-07 sca=3.52678 scb=0.000111658 scc=3.66286e-09 fw=2.4e-07
MXI0/XI0/XI0/MNM1	XI0/net1#13	CIN#9	XI0/XI0/XI0/net18	GND
+ g45n1svt	L=4.5e-08	W=2.4e-07
+ AD=3.36e-14	AS=1.44e-14	PD=7.6e-07	PS=6e-07
+ sa=1.4e-07 sb=2.45e-07 sca=5.51597 scb=0.00169014 scc=6.16736e-06 fw=2.4e-07
MXI0/XI1/XI6/MNM0	SOUT0#17	XI0/XI1/Q#3	GND#17	GND
+ g45n1svt	L=4.5e-08	W=1.2e-07
+ AD=1.68e-14	AS=1.68e-14	PD=5.2e-07	PS=5.2e-07
+ sa=1.4e-07 sb=1.4e-07 sca=3.69959 scb=0.00013007 scc=4.39142e-09 fw=1.2e-07
MXI0/XI0/XI0/MNM3	XI0/XI0/XI0/net18	SOUT0#9	GND#21	GND
+ g45n1svt	L=4.5e-08	W=2.4e-07
+ AD=1.44e-14	AS=3.36e-14	PD=6e-07	PS=7.6e-07
+ sa=2.45e-07 sb=1.4e-07 sca=5.51597 scb=0.00169014 scc=6.16736e-06 fw=2.4e-07
MXI0/XI0/XI1/XI2/MNM0	net7#13	XI0/XI0/XI1/net2	GND#19	GND
+ g45n1svt	L=4.5e-08	W=1.2e-07
+ AD=1.68e-14	AS=1.68e-14	PD=5.2e-07	PS=5.2e-07
+ sa=1.4e-07 sb=1.4e-07 sca=3.69959 scb=0.00013007 scc=4.39142e-09 fw=1.2e-07
MXI0/XI0/XI0/XI0/MNM0	XI0/XI0/XI0/ANOT#7	CIN#3	GND#1	GND
+ g45n1svt	L=4.5e-08	W=1.2e-07
+ AD=1.68e-14	AS=1.68e-14	PD=5.2e-07	PS=5.2e-07
+ sa=1.4e-07 sb=1.4e-07 sca=5.90867 scb=0.00164474 scc=3.75172e-06 fw=1.2e-07
MXI0/XI1/XI5/MNM0	XI0/XI1/D#5	RST#1	XI0/XI1/XI5/net13#4	GND
+ g45n1svt	L=4.5e-08	W=2.4e-07
+ AD=3.36e-14	AS=3.36e-14	PD=7.6e-07	PS=7.6e-07
+ sa=1.4e-07 sb=1.4e-07 sca=3.82604 scb=0.000193838 scc=1.85478e-08 fw=2.4e-07
MXI0/XI1/XI4/XI1/MNM0	XI0/XI1/XI4/PHINOT#7	PHI#3	GND#3	GND
+ g45n1svt	L=4.5e-08	W=1.2e-07
+ AD=1.68e-14	AS=1.68e-14	PD=5.2e-07	PS=5.2e-07
+ sa=1.4e-07 sb=1.4e-07 sca=3.99885 scb=0.00021225 scc=1.92763e-08 fw=1.2e-07
MXI1/XI0/XI0/XI0/MNM0	XI1/XI0/XI0/ANOT#7	net7#3	GND#23	GND
+ g45n1svt	L=4.5e-08	W=1.2e-07
+ AD=1.68e-14	AS=1.68e-14	PD=5.2e-07	PS=5.2e-07
+ sa=1.4e-07 sb=1.4e-07 sca=5.52044 scb=0.00152619 scc=3.72446e-06 fw=1.2e-07
MXI1/XI1/XI5/MNM0	XI1/XI1/D#5	RST#4	XI1/XI1/XI5/net13#4	GND
+ g45n1svt	L=4.5e-08	W=2.4e-07
+ AD=3.36e-14	AS=3.36e-14	PD=7.6e-07	PS=7.6e-07
+ sa=1.4e-07 sb=1.4e-07 sca=3.52678 scb=0.000111658 scc=3.66286e-09 fw=2.4e-07
MXI1/XI1/XI4/XI1/MNM0	XI1/XI1/XI4/PHINOT#7	PHI#9	GND#25	GND
+ g45n1svt	L=4.5e-08	W=1.2e-07
+ AD=1.68e-14	AS=1.68e-14	PD=5.2e-07	PS=5.2e-07
+ sa=1.4e-07 sb=1.4e-07 sca=3.69959 scb=0.00013007 scc=4.39142e-09 fw=1.2e-07
MXI2/XI0/XI0/XI0/MNM0	XI2/XI0/XI0/ANOT#7	net14#3	GND#45	GND
+ g45n1svt	L=4.5e-08	W=1.2e-07
+ AD=1.68e-14	AS=1.68e-14	PD=5.2e-07	PS=5.2e-07
+ sa=1.4e-07 sb=1.4e-07 sca=5.52044 scb=0.00152619 scc=3.72446e-06 fw=1.2e-07
MXI2/XI1/XI5/MNM0	XI2/XI1/D#5	RST#7	XI2/XI1/XI5/net13#4	GND
+ g45n1svt	L=4.5e-08	W=2.4e-07
+ AD=3.36e-14	AS=3.36e-14	PD=7.6e-07	PS=7.6e-07
+ sa=1.4e-07 sb=1.4e-07 sca=3.52678 scb=0.000111658 scc=3.66286e-09 fw=2.4e-07
MXI2/XI1/XI4/XI1/MNM0	XI2/XI1/XI4/PHINOT#7	PHI#15	GND#47	GND
+ g45n1svt	L=4.5e-08	W=1.2e-07
+ AD=1.68e-14	AS=1.68e-14	PD=5.2e-07	PS=5.2e-07
+ sa=1.4e-07 sb=1.4e-07 sca=3.69959 scb=0.00013007 scc=4.39142e-09 fw=1.2e-07
MXI3/XI0/XI0/XI0/MNM0	XI3/XI0/XI0/ANOT#7	net21#3	GND#67	GND
+ g45n1svt	L=4.5e-08	W=1.2e-07
+ AD=1.68e-14	AS=1.68e-14	PD=5.2e-07	PS=5.2e-07
+ sa=1.4e-07 sb=1.4e-07 sca=5.52044 scb=0.00152619 scc=3.72446e-06 fw=1.2e-07
MXI3/XI1/XI5/MNM0	XI3/XI1/D#5	RST#10	XI3/XI1/XI5/net13#4	GND
+ g45n1svt	L=4.5e-08	W=2.4e-07
+ AD=3.36e-14	AS=3.36e-14	PD=7.6e-07	PS=7.6e-07
+ sa=1.4e-07 sb=1.4e-07 sca=3.52678 scb=0.000111658 scc=3.66286e-09 fw=2.4e-07
MXI3/XI1/XI4/XI1/MNM0	XI3/XI1/XI4/PHINOT#7	PHI#21	GND#69	GND
+ g45n1svt	L=4.5e-08	W=1.2e-07
+ AD=1.68e-14	AS=1.68e-14	PD=5.2e-07	PS=5.2e-07
+ sa=1.4e-07 sb=1.4e-07 sca=3.69959 scb=0.00013007 scc=4.39142e-09 fw=1.2e-07
MXI3/XI0/XI0/XI1/MPM0	XI3/XI0/XI0/BNOT#6	SOUT3#1	VDD#85	VDD
+ g45p1svt	L=4.5e-08	W=2.4e-07
+ AD=3.36e-14	AS=3.36e-14	PD=7.6e-07	PS=7.6e-07
+ sa=1.4e-07 sb=1.4e-07 sca=7.56294 scb=0.00496757 scc=7.49928e-05 fw=2.4e-07
MXI3/XI1/XI5/MPM0	XI3/XI1/D#8	XI3/net1#3	VDD#87	VDD
+ g45p1svt	L=4.5e-08	W=2.4e-07
+ AD=3.36e-14	AS=3.36e-14	PD=7.6e-07	PS=7.6e-07
+ sa=1.4e-07 sb=1.4e-07 sca=6.96481 scb=0.00395847 scc=4.42604e-05 fw=2.4e-07
MXI3/XI0/XI1/XI0/MPM0	XI3/XI0/XI1/net2#7	SOUT3#6	VDD#89	VDD
+ g45p1svt	L=4.5e-08	W=2.4e-07
+ AD=3.36e-14	AS=3.36e-14	PD=7.6e-07	PS=7.6e-07
+ sa=1.4e-07 sb=1.4e-07 sca=6.96481 scb=0.00395847 scc=4.42604e-05 fw=2.4e-07
MXI3/XI1/XI4/MPM3	XI3/XI1/Q#4	XI3/XI1/XI4/PHINOT
+ XI3/XI1/XI4/net17	VDD	g45p1svt	L=4.5e-08	W=4.8e-07
+ AD=6.72e-14	AS=2.88e-14	PD=1.24e-06	PS=1.08e-06
+ sa=1.4e-07 sb=2.45e-07 sca=7.67082 scb=0.00406069 scc=4.89818e-05 fw=4.8e-07
MXI3/XI1/XI4/MPM2	XI3/XI1/XI4/net17	XI3/XI1/XI4/net24	VDD#91
+ VDD	g45p1svt	L=4.5e-08	W=4.8e-07
+ AD=2.88e-14	AS=6.72e-14	PD=1.08e-06	PS=1.24e-06
+ sa=2.45e-07 sb=1.4e-07 sca=7.67082 scb=0.00406069 scc=4.89818e-05 fw=4.8e-07
MXI3/XI0/XI0/MPM0	XI3/XI0/XI0/net4	SOUT3#7	VDD#93	VDD
+ g45p1svt	L=4.5e-08	W=4.8e-07
+ AD=2.88e-14	AS=6.72e-14	PD=1.08e-06	PS=1.24e-06
+ sa=1.4e-07 sb=2.45e-07 sca=15.1999 scb=0.012812 scc=0.00139229 fw=4.8e-07
MXI3/XI0/XI0/MPM1	XI3/net1#10	XI3/XI0/XI0/ANOT
+ XI3/XI0/XI0/net4	VDD	g45p1svt	L=4.5e-08	W=4.8e-07
+ AD=6.72e-14	AS=2.88e-14	PD=1.24e-06	PS=1.08e-06
+ sa=2.45e-07 sb=1.4e-07 sca=15.1999 scb=0.012812 scc=0.00139229 fw=4.8e-07
MXI3/XI0/XI1/XI0/MPM1	XI3/XI0/XI1/net2#4	net21#6	VDD#97	VDD
+ g45p1svt	L=4.5e-08	W=2.4e-07
+ AD=3.36e-14	AS=3.36e-14	PD=7.6e-07	PS=7.6e-07
+ sa=1.4e-07 sb=1.4e-07 sca=6.96481 scb=0.00395847 scc=4.42604e-05 fw=2.4e-07
MXI3/XI1/XI4/MPM0	XI3/XI1/XI4/net9	XI3/XI1/D#3	VDD#95	VDD
+ g45p1svt	L=4.5e-08	W=4.8e-07
+ AD=2.88e-14	AS=6.72e-14	PD=1.08e-06	PS=1.24e-06
+ sa=1.4e-07 sb=2.45e-07 sca=7.67082 scb=0.00406069 scc=4.89818e-05 fw=4.8e-07
MXI3/XI1/XI4/MPM1	XI3/XI1/XI4/net24#10	PHI#22	XI3/XI1/XI4/net9
+ VDD	g45p1svt	L=4.5e-08	W=4.8e-07
+ AD=6.72e-14	AS=2.88e-14	PD=1.24e-06	PS=1.08e-06
+ sa=2.45e-07 sb=1.4e-07 sca=7.67082 scb=0.00406069 scc=4.89818e-05 fw=4.8e-07
MXI3/XI0/XI0/MPM3	XI3/net1#7	net21#7	XI3/XI0/XI0/net11
+ VDD	g45p1svt	L=4.5e-08	W=4.8e-07
+ AD=6.72e-14	AS=2.88e-14	PD=1.24e-06	PS=1.08e-06
+ sa=1.4e-07 sb=2.45e-07 sca=15.1999 scb=0.012812 scc=0.00139229 fw=4.8e-07
MXI3/XI1/XI6/MPM0	SOUT3#15	XI3/XI1/Q	VDD#99	VDD
+ g45p1svt	L=4.5e-08	W=2.4e-07
+ AD=3.36e-14	AS=3.36e-14	PD=7.6e-07	PS=7.6e-07
+ sa=1.4e-07 sb=1.4e-07 sca=6.81464 scb=0.00236693 scc=5.95408e-06 fw=2.4e-07
MXI3/XI0/XI0/MPM2	XI3/XI0/XI0/net11	XI3/XI0/XI0/BNOT#3	VDD#103
+ VDD	g45p1svt	L=4.5e-08	W=4.8e-07
+ AD=2.88e-14	AS=6.72e-14	PD=1.08e-06	PS=1.24e-06
+ sa=2.45e-07 sb=1.4e-07 sca=15.1999 scb=0.012812 scc=0.00139229 fw=4.8e-07
MXI3/XI0/XI1/XI2/MPM0	COUT#2	XI3/XI0/XI1/net2#3	VDD#101	VDD
+ g45p1svt	L=4.5e-08	W=2.4e-07
+ AD=3.36e-14	AS=3.36e-14	PD=7.6e-07	PS=7.6e-07
+ sa=1.4e-07 sb=1.4e-07 sca=7.79132 scb=0.00535378 scc=8.92944e-05 fw=2.4e-07
MXI2/XI0/XI0/XI1/MPM0	XI2/XI0/XI0/BNOT#6	SOUT2#1	VDD#59	VDD
+ g45p1svt	L=4.5e-08	W=2.4e-07
+ AD=3.36e-14	AS=3.36e-14	PD=7.6e-07	PS=7.6e-07
+ sa=1.4e-07 sb=1.4e-07 sca=7.56294 scb=0.00496757 scc=7.49928e-05 fw=2.4e-07
MXI2/XI1/XI5/MPM0	XI2/XI1/D#8	XI2/net1#3	VDD#61	VDD
+ g45p1svt	L=4.5e-08	W=2.4e-07
+ AD=3.36e-14	AS=3.36e-14	PD=7.6e-07	PS=7.6e-07
+ sa=1.4e-07 sb=1.4e-07 sca=6.96481 scb=0.00395847 scc=4.42604e-05 fw=2.4e-07
MXI2/XI0/XI1/XI0/MPM0	XI2/XI0/XI1/net2#7	SOUT2#6	VDD#63	VDD
+ g45p1svt	L=4.5e-08	W=2.4e-07
+ AD=3.36e-14	AS=3.36e-14	PD=7.6e-07	PS=7.6e-07
+ sa=1.4e-07 sb=1.4e-07 sca=6.96481 scb=0.00395847 scc=4.42604e-05 fw=2.4e-07
MXI2/XI1/XI4/MPM3	XI2/XI1/Q#4	XI2/XI1/XI4/PHINOT
+ XI2/XI1/XI4/net17	VDD	g45p1svt	L=4.5e-08	W=4.8e-07
+ AD=6.72e-14	AS=2.88e-14	PD=1.24e-06	PS=1.08e-06
+ sa=1.4e-07 sb=2.45e-07 sca=7.67082 scb=0.00406069 scc=4.89818e-05 fw=4.8e-07
MXI2/XI1/XI4/MPM2	XI2/XI1/XI4/net17	XI2/XI1/XI4/net24	VDD#65
+ VDD	g45p1svt	L=4.5e-08	W=4.8e-07
+ AD=2.88e-14	AS=6.72e-14	PD=1.08e-06	PS=1.24e-06
+ sa=2.45e-07 sb=1.4e-07 sca=7.67082 scb=0.00406069 scc=4.89818e-05 fw=4.8e-07
MXI2/XI0/XI0/MPM0	XI2/XI0/XI0/net4	SOUT2#7	VDD#67	VDD
+ g45p1svt	L=4.5e-08	W=4.8e-07
+ AD=2.88e-14	AS=6.72e-14	PD=1.08e-06	PS=1.24e-06
+ sa=1.4e-07 sb=2.45e-07 sca=15.1999 scb=0.012812 scc=0.00139229 fw=4.8e-07
MXI2/XI0/XI0/MPM1	XI2/net1#10	XI2/XI0/XI0/ANOT
+ XI2/XI0/XI0/net4	VDD	g45p1svt	L=4.5e-08	W=4.8e-07
+ AD=6.72e-14	AS=2.88e-14	PD=1.24e-06	PS=1.08e-06
+ sa=2.45e-07 sb=1.4e-07 sca=15.1999 scb=0.012812 scc=0.00139229 fw=4.8e-07
MXI2/XI0/XI1/XI0/MPM1	XI2/XI0/XI1/net2#4	net14#6	VDD#71	VDD
+ g45p1svt	L=4.5e-08	W=2.4e-07
+ AD=3.36e-14	AS=3.36e-14	PD=7.6e-07	PS=7.6e-07
+ sa=1.4e-07 sb=1.4e-07 sca=6.96481 scb=0.00395847 scc=4.42604e-05 fw=2.4e-07
MXI2/XI1/XI4/MPM0	XI2/XI1/XI4/net9	XI2/XI1/D#3	VDD#69	VDD
+ g45p1svt	L=4.5e-08	W=4.8e-07
+ AD=2.88e-14	AS=6.72e-14	PD=1.08e-06	PS=1.24e-06
+ sa=1.4e-07 sb=2.45e-07 sca=7.67082 scb=0.00406069 scc=4.89818e-05 fw=4.8e-07
MXI2/XI1/XI4/MPM1	XI2/XI1/XI4/net24#10	PHI#16	XI2/XI1/XI4/net9
+ VDD	g45p1svt	L=4.5e-08	W=4.8e-07
+ AD=6.72e-14	AS=2.88e-14	PD=1.24e-06	PS=1.08e-06
+ sa=2.45e-07 sb=1.4e-07 sca=7.67082 scb=0.00406069 scc=4.89818e-05 fw=4.8e-07
MXI2/XI0/XI0/MPM3	XI2/net1#7	net14#7	XI2/XI0/XI0/net11
+ VDD	g45p1svt	L=4.5e-08	W=4.8e-07
+ AD=6.72e-14	AS=2.88e-14	PD=1.24e-06	PS=1.08e-06
+ sa=1.4e-07 sb=2.45e-07 sca=15.1999 scb=0.012812 scc=0.00139229 fw=4.8e-07
MXI2/XI1/XI6/MPM0	SOUT2#15	XI2/XI1/Q	VDD#73	VDD
+ g45p1svt	L=4.5e-08	W=2.4e-07
+ AD=3.36e-14	AS=3.36e-14	PD=7.6e-07	PS=7.6e-07
+ sa=1.4e-07 sb=1.4e-07 sca=6.81464 scb=0.00236693 scc=5.95408e-06 fw=2.4e-07
MXI2/XI0/XI0/MPM2	XI2/XI0/XI0/net11	XI2/XI0/XI0/BNOT#3	VDD#77
+ VDD	g45p1svt	L=4.5e-08	W=4.8e-07
+ AD=2.88e-14	AS=6.72e-14	PD=1.08e-06	PS=1.24e-06
+ sa=2.45e-07 sb=1.4e-07 sca=15.1999 scb=0.012812 scc=0.00139229 fw=4.8e-07
MXI2/XI0/XI1/XI2/MPM0	net21#11	XI2/XI0/XI1/net2#3	VDD#75	VDD
+ g45p1svt	L=4.5e-08	W=2.4e-07
+ AD=3.36e-14	AS=3.36e-14	PD=7.6e-07	PS=7.6e-07
+ sa=1.4e-07 sb=1.4e-07 sca=7.79132 scb=0.00535378 scc=8.92944e-05 fw=2.4e-07
MXI1/XI0/XI0/XI1/MPM0	XI1/XI0/XI0/BNOT#6	SOUT1#1	VDD#33	VDD
+ g45p1svt	L=4.5e-08	W=2.4e-07
+ AD=3.36e-14	AS=3.36e-14	PD=7.6e-07	PS=7.6e-07
+ sa=1.4e-07 sb=1.4e-07 sca=7.56294 scb=0.00496757 scc=7.49928e-05 fw=2.4e-07
MXI1/XI1/XI5/MPM0	XI1/XI1/D#8	XI1/net1#3	VDD#35	VDD
+ g45p1svt	L=4.5e-08	W=2.4e-07
+ AD=3.36e-14	AS=3.36e-14	PD=7.6e-07	PS=7.6e-07
+ sa=1.4e-07 sb=1.4e-07 sca=6.96481 scb=0.00395847 scc=4.42604e-05 fw=2.4e-07
MXI1/XI0/XI1/XI0/MPM0	XI1/XI0/XI1/net2#7	SOUT1#6	VDD#37	VDD
+ g45p1svt	L=4.5e-08	W=2.4e-07
+ AD=3.36e-14	AS=3.36e-14	PD=7.6e-07	PS=7.6e-07
+ sa=1.4e-07 sb=1.4e-07 sca=6.96481 scb=0.00395847 scc=4.42604e-05 fw=2.4e-07
MXI1/XI1/XI4/MPM3	XI1/XI1/Q#4	XI1/XI1/XI4/PHINOT
+ XI1/XI1/XI4/net17	VDD	g45p1svt	L=4.5e-08	W=4.8e-07
+ AD=6.72e-14	AS=2.88e-14	PD=1.24e-06	PS=1.08e-06
+ sa=1.4e-07 sb=2.45e-07 sca=7.67082 scb=0.00406069 scc=4.89818e-05 fw=4.8e-07
MXI1/XI1/XI4/MPM2	XI1/XI1/XI4/net17	XI1/XI1/XI4/net24	VDD#39
+ VDD	g45p1svt	L=4.5e-08	W=4.8e-07
+ AD=2.88e-14	AS=6.72e-14	PD=1.08e-06	PS=1.24e-06
+ sa=2.45e-07 sb=1.4e-07 sca=7.67082 scb=0.00406069 scc=4.89818e-05 fw=4.8e-07
MXI1/XI0/XI0/MPM0	XI1/XI0/XI0/net4	SOUT1#7	VDD#41	VDD
+ g45p1svt	L=4.5e-08	W=4.8e-07
+ AD=2.88e-14	AS=6.72e-14	PD=1.08e-06	PS=1.24e-06
+ sa=1.4e-07 sb=2.45e-07 sca=15.1999 scb=0.012812 scc=0.00139229 fw=4.8e-07
MXI1/XI0/XI0/MPM1	XI1/net1#10	XI1/XI0/XI0/ANOT
+ XI1/XI0/XI0/net4	VDD	g45p1svt	L=4.5e-08	W=4.8e-07
+ AD=6.72e-14	AS=2.88e-14	PD=1.24e-06	PS=1.08e-06
+ sa=2.45e-07 sb=1.4e-07 sca=15.1999 scb=0.012812 scc=0.00139229 fw=4.8e-07
MXI1/XI0/XI1/XI0/MPM1	XI1/XI0/XI1/net2#4	net7#6	VDD#45	VDD
+ g45p1svt	L=4.5e-08	W=2.4e-07
+ AD=3.36e-14	AS=3.36e-14	PD=7.6e-07	PS=7.6e-07
+ sa=1.4e-07 sb=1.4e-07 sca=6.96481 scb=0.00395847 scc=4.42604e-05 fw=2.4e-07
MXI1/XI1/XI4/MPM0	XI1/XI1/XI4/net9	XI1/XI1/D#3	VDD#43	VDD
+ g45p1svt	L=4.5e-08	W=4.8e-07
+ AD=2.88e-14	AS=6.72e-14	PD=1.08e-06	PS=1.24e-06
+ sa=1.4e-07 sb=2.45e-07 sca=7.67082 scb=0.00406069 scc=4.89818e-05 fw=4.8e-07
MXI1/XI1/XI4/MPM1	XI1/XI1/XI4/net24#10	PHI#10	XI1/XI1/XI4/net9
+ VDD	g45p1svt	L=4.5e-08	W=4.8e-07
+ AD=6.72e-14	AS=2.88e-14	PD=1.24e-06	PS=1.08e-06
+ sa=2.45e-07 sb=1.4e-07 sca=7.67082 scb=0.00406069 scc=4.89818e-05 fw=4.8e-07
MXI1/XI0/XI0/MPM3	XI1/net1#7	net7#7	XI1/XI0/XI0/net11	VDD
+ g45p1svt	L=4.5e-08	W=4.8e-07
+ AD=6.72e-14	AS=2.88e-14	PD=1.24e-06	PS=1.08e-06
+ sa=1.4e-07 sb=2.45e-07 sca=15.1999 scb=0.012812 scc=0.00139229 fw=4.8e-07
MXI1/XI1/XI6/MPM0	SOUT1#15	XI1/XI1/Q	VDD#47	VDD
+ g45p1svt	L=4.5e-08	W=2.4e-07
+ AD=3.36e-14	AS=3.36e-14	PD=7.6e-07	PS=7.6e-07
+ sa=1.4e-07 sb=1.4e-07 sca=6.81464 scb=0.00236693 scc=5.95408e-06 fw=2.4e-07
MXI1/XI0/XI0/MPM2	XI1/XI0/XI0/net11	XI1/XI0/XI0/BNOT#3	VDD#51
+ VDD	g45p1svt	L=4.5e-08	W=4.8e-07
+ AD=2.88e-14	AS=6.72e-14	PD=1.08e-06	PS=1.24e-06
+ sa=2.45e-07 sb=1.4e-07 sca=15.1999 scb=0.012812 scc=0.00139229 fw=4.8e-07
MXI1/XI0/XI1/XI2/MPM0	net14#11	XI1/XI0/XI1/net2#3	VDD#49	VDD
+ g45p1svt	L=4.5e-08	W=2.4e-07
+ AD=3.36e-14	AS=3.36e-14	PD=7.6e-07	PS=7.6e-07
+ sa=1.4e-07 sb=1.4e-07 sca=7.79132 scb=0.00535378 scc=8.92944e-05 fw=2.4e-07
MXI0/XI0/XI0/XI1/MPM0	XI0/XI0/XI0/BNOT#6	SOUT0#1	VDD#7	VDD
+ g45p1svt	L=4.5e-08	W=2.4e-07
+ AD=3.36e-14	AS=3.36e-14	PD=7.6e-07	PS=7.6e-07
+ sa=1.4e-07 sb=1.4e-07 sca=7.56294 scb=0.00496757 scc=7.49928e-05 fw=2.4e-07
MXI0/XI1/XI5/MPM0	XI0/XI1/D#8	XI0/net1#3	VDD#9	VDD
+ g45p1svt	L=4.5e-08	W=2.4e-07
+ AD=3.36e-14	AS=3.36e-14	PD=7.6e-07	PS=7.6e-07
+ sa=1.4e-07 sb=1.4e-07 sca=6.96481 scb=0.00395847 scc=4.42604e-05 fw=2.4e-07
MXI0/XI0/XI1/XI0/MPM0	XI0/XI0/XI1/net2#7	SOUT0#6	VDD#11	VDD
+ g45p1svt	L=4.5e-08	W=2.4e-07
+ AD=3.36e-14	AS=3.36e-14	PD=7.6e-07	PS=7.6e-07
+ sa=1.4e-07 sb=1.4e-07 sca=6.96481 scb=0.00395847 scc=4.42604e-05 fw=2.4e-07
MXI0/XI1/XI4/MPM3	XI0/XI1/Q#4	XI0/XI1/XI4/PHINOT
+ XI0/XI1/XI4/net17	VDD	g45p1svt	L=4.5e-08	W=4.8e-07
+ AD=6.72e-14	AS=2.88e-14	PD=1.24e-06	PS=1.08e-06
+ sa=1.4e-07 sb=2.45e-07 sca=7.67082 scb=0.00406069 scc=4.89818e-05 fw=4.8e-07
MXI0/XI1/XI4/MPM2	XI0/XI1/XI4/net17	XI0/XI1/XI4/net24	VDD#13
+ VDD	g45p1svt	L=4.5e-08	W=4.8e-07
+ AD=2.88e-14	AS=6.72e-14	PD=1.08e-06	PS=1.24e-06
+ sa=2.45e-07 sb=1.4e-07 sca=7.67082 scb=0.00406069 scc=4.89818e-05 fw=4.8e-07
MXI0/XI0/XI0/MPM0	XI0/XI0/XI0/net4	SOUT0#7	VDD#15	VDD
+ g45p1svt	L=4.5e-08	W=4.8e-07
+ AD=2.88e-14	AS=6.72e-14	PD=1.08e-06	PS=1.24e-06
+ sa=1.4e-07 sb=2.45e-07 sca=15.1999 scb=0.012812 scc=0.00139229 fw=4.8e-07
MXI0/XI0/XI0/MPM1	XI0/net1#10	XI0/XI0/XI0/ANOT
+ XI0/XI0/XI0/net4	VDD	g45p1svt	L=4.5e-08	W=4.8e-07
+ AD=6.72e-14	AS=2.88e-14	PD=1.24e-06	PS=1.08e-06
+ sa=2.45e-07 sb=1.4e-07 sca=15.1999 scb=0.012812 scc=0.00139229 fw=4.8e-07
MXI0/XI0/XI1/XI0/MPM1	XI0/XI0/XI1/net2#4	CIN#6	VDD#19	VDD
+ g45p1svt	L=4.5e-08	W=2.4e-07
+ AD=3.36e-14	AS=3.36e-14	PD=7.6e-07	PS=7.6e-07
+ sa=1.4e-07 sb=1.4e-07 sca=6.96481 scb=0.00395847 scc=4.42604e-05 fw=2.4e-07
MXI0/XI1/XI4/MPM0	XI0/XI1/XI4/net9	XI0/XI1/D#3	VDD#17	VDD
+ g45p1svt	L=4.5e-08	W=4.8e-07
+ AD=2.88e-14	AS=6.72e-14	PD=1.08e-06	PS=1.24e-06
+ sa=1.4e-07 sb=2.45e-07 sca=7.67082 scb=0.00406069 scc=4.89818e-05 fw=4.8e-07
MXI0/XI1/XI4/MPM1	XI0/XI1/XI4/net24#10	PHI#4	XI0/XI1/XI4/net9
+ VDD	g45p1svt	L=4.5e-08	W=4.8e-07
+ AD=6.72e-14	AS=2.88e-14	PD=1.24e-06	PS=1.08e-06
+ sa=2.45e-07 sb=1.4e-07 sca=7.67082 scb=0.00406069 scc=4.89818e-05 fw=4.8e-07
MXI0/XI0/XI0/MPM3	XI0/net1#7	CIN#7	XI0/XI0/XI0/net11	VDD
+ g45p1svt	L=4.5e-08	W=4.8e-07
+ AD=6.72e-14	AS=2.88e-14	PD=1.24e-06	PS=1.08e-06
+ sa=1.4e-07 sb=2.45e-07 sca=15.1999 scb=0.012812 scc=0.00139229 fw=4.8e-07
MXI0/XI1/XI6/MPM0	SOUT0#15	XI0/XI1/Q	VDD#21	VDD
+ g45p1svt	L=4.5e-08	W=2.4e-07
+ AD=3.36e-14	AS=3.36e-14	PD=7.6e-07	PS=7.6e-07
+ sa=1.4e-07 sb=1.4e-07 sca=6.81464 scb=0.00236693 scc=5.95408e-06 fw=2.4e-07
MXI0/XI0/XI0/MPM2	XI0/XI0/XI0/net11	XI0/XI0/XI0/BNOT#3	VDD#25
+ VDD	g45p1svt	L=4.5e-08	W=4.8e-07
+ AD=2.88e-14	AS=6.72e-14	PD=1.08e-06	PS=1.24e-06
+ sa=2.45e-07 sb=1.4e-07 sca=15.1999 scb=0.012812 scc=0.00139229 fw=4.8e-07
MXI0/XI0/XI1/XI2/MPM0	net7#11	XI0/XI0/XI1/net2#3	VDD#23	VDD
+ g45p1svt	L=4.5e-08	W=2.4e-07
+ AD=3.36e-14	AS=3.36e-14	PD=7.6e-07	PS=7.6e-07
+ sa=1.4e-07 sb=1.4e-07 sca=7.79132 scb=0.00535378 scc=8.92944e-05 fw=2.4e-07
MXI0/XI0/XI0/XI0/MPM0	XI0/XI0/XI0/ANOT#5	CIN#1	VDD#1	VDD
+ g45p1svt	L=4.5e-08	W=2.4e-07
+ AD=3.36e-14	AS=3.36e-14	PD=7.6e-07	PS=7.6e-07
+ sa=1.4e-07 sb=1.4e-07 sca=7.95118 scb=0.00508612 scc=7.502e-05 fw=2.4e-07
MXI0/XI1/XI5/MPM1	XI0/XI1/D#11	RST#3	VDD#6	VDD	g45p1svt
+ L=4.5e-08	W=2.4e-07
+ AD=3.36e-14	AS=3.36e-14	PD=7.6e-07	PS=7.6e-07
+ sa=1.4e-07 sb=1.4e-07 sca=7.26407 scb=0.00404065 scc=4.42753e-05 fw=2.4e-07
MXI0/XI1/XI4/XI1/MPM0	XI0/XI1/XI4/PHINOT#5	PHI#1	VDD#3	VDD
+ g45p1svt	L=4.5e-08	W=2.4e-07
+ AD=3.36e-14	AS=3.36e-14	PD=7.6e-07	PS=7.6e-07
+ sa=1.4e-07 sb=1.4e-07 sca=7.1139 scb=0.00244911 scc=5.96896e-06 fw=2.4e-07
MXI1/XI0/XI0/XI0/MPM0	XI1/XI0/XI0/ANOT#5	net7	VDD#27	VDD
+ g45p1svt	L=4.5e-08	W=2.4e-07
+ AD=3.36e-14	AS=3.36e-14	PD=7.6e-07	PS=7.6e-07
+ sa=1.4e-07 sb=1.4e-07 sca=7.56294 scb=0.00496757 scc=7.49928e-05 fw=2.4e-07
MXI1/XI1/XI5/MPM1	XI1/XI1/D#11	RST#6	VDD#32	VDD	g45p1svt
+ L=4.5e-08	W=2.4e-07
+ AD=3.36e-14	AS=3.36e-14	PD=7.6e-07	PS=7.6e-07
+ sa=1.4e-07 sb=1.4e-07 sca=6.96481 scb=0.00395847 scc=4.42604e-05 fw=2.4e-07
MXI1/XI1/XI4/XI1/MPM0	XI1/XI1/XI4/PHINOT#5	PHI#7	VDD#29	VDD
+ g45p1svt	L=4.5e-08	W=2.4e-07
+ AD=3.36e-14	AS=3.36e-14	PD=7.6e-07	PS=7.6e-07
+ sa=1.4e-07 sb=1.4e-07 sca=6.81464 scb=0.00236693 scc=5.95408e-06 fw=2.4e-07
MXI2/XI0/XI0/XI0/MPM0	XI2/XI0/XI0/ANOT#5	net14	VDD#53	VDD
+ g45p1svt	L=4.5e-08	W=2.4e-07
+ AD=3.36e-14	AS=3.36e-14	PD=7.6e-07	PS=7.6e-07
+ sa=1.4e-07 sb=1.4e-07 sca=7.56294 scb=0.00496757 scc=7.49928e-05 fw=2.4e-07
MXI2/XI1/XI5/MPM1	XI2/XI1/D#11	RST#9	VDD#58	VDD	g45p1svt
+ L=4.5e-08	W=2.4e-07
+ AD=3.36e-14	AS=3.36e-14	PD=7.6e-07	PS=7.6e-07
+ sa=1.4e-07 sb=1.4e-07 sca=6.96481 scb=0.00395847 scc=4.42604e-05 fw=2.4e-07
MXI2/XI1/XI4/XI1/MPM0	XI2/XI1/XI4/PHINOT#5	PHI#13	VDD#55	VDD
+ g45p1svt	L=4.5e-08	W=2.4e-07
+ AD=3.36e-14	AS=3.36e-14	PD=7.6e-07	PS=7.6e-07
+ sa=1.4e-07 sb=1.4e-07 sca=6.81464 scb=0.00236693 scc=5.95408e-06 fw=2.4e-07
MXI3/XI0/XI0/XI0/MPM0	XI3/XI0/XI0/ANOT#5	net21	VDD#79	VDD
+ g45p1svt	L=4.5e-08	W=2.4e-07
+ AD=3.36e-14	AS=3.36e-14	PD=7.6e-07	PS=7.6e-07
+ sa=1.4e-07 sb=1.4e-07 sca=7.56294 scb=0.00496757 scc=7.49928e-05 fw=2.4e-07
MXI3/XI1/XI5/MPM1	XI3/XI1/D#11	RST#12	VDD#84	VDD	g45p1svt
+ L=4.5e-08	W=2.4e-07
+ AD=3.36e-14	AS=3.36e-14	PD=7.6e-07	PS=7.6e-07
+ sa=1.4e-07 sb=1.4e-07 sca=6.96481 scb=0.00395847 scc=4.42604e-05 fw=2.4e-07
MXI3/XI1/XI4/XI1/MPM0	XI3/XI1/XI4/PHINOT#5	PHI#19	VDD#81	VDD
+ g45p1svt	L=4.5e-08	W=2.4e-07
+ AD=3.36e-14	AS=3.36e-14	PD=7.6e-07	PS=7.6e-07
+ sa=1.4e-07 sb=1.4e-07 sca=6.81464 scb=0.00236693 scc=5.95408e-06 fw=2.4e-07
*
*
*       RESISTOR AND CAP/DIODE CARDS
*
Rl1	CIN#1	CIN#2	306.867249	$poly_conn
Rl2	CIN#2	CIN#3	383.790314	$poly_conn
Rl3	RST#1	RST#2	76.098015	$poly_conn
Rl4	RST#2	RST#3	606.867249	$poly_conn
Rl5	PHI#1	PHI#2	199.979935	$poly_conn
Rl6	PHI#2	PHI#3	492.287628	$poly_conn
Rl7	SOUT0#1	SOUT0#2	142.287613	$poly_conn
Rl8	SOUT0#2	SOUT0#3	549.979919	$poly_conn
Rl9	XI0/net1	XI0/net1#2	622.251892	$poly_conn
Rl10	XI0/net1#2	XI0/net1#3	60.713398	$poly_conn
Rl11	SOUT0#4	SOUT0#5	215.364548	$poly_conn
Rl12	SOUT0#5	SOUT0#6	469.210693	$poly_conn
Rl13	XI0/XI1/XI4/PHINOT	XI0/XI1/XI4/PHINOT#2	206.461472
+ $poly_conn
Rl14	XI0/XI1/XI4/PHINOT#2	XI0/XI1/XI4/PHINOT#3	391.076874
+ $poly_conn
Rl15	XI0/XI1/XI4/net24	XI0/XI1/XI4/net24#2	490.321899
+ $poly_conn
Rl16	XI0/XI1/D	XI0/XI1/D#2	117.244949	$poly_conn
Rl17	SOUT0#7	SOUT0#8	101.860336	$poly_conn
Rl18	XI0/XI0/XI0/BNOT	XI0/XI0/XI0/BNOT#2	141.475723
+ $poly_conn
Rl19	XI0/XI0/XI0/ANOT	XI0/XI0/XI0/ANOT#2	372.251862
+ $poly_conn
Rl20	XI0/XI0/XI0/ANOT#2	XI0/XI0/XI0/ANOT#3	210.713394
+ $poly_conn
Rl21	CIN#4	CIN#5	418.405701	$poly_conn
Rl22	CIN#5	CIN#6	264.559540	$poly_conn
Rl23	XI0/XI1/D#3	XI0/XI1/D#4	53.014187	$poly_conn
Rl24	XI0/XI1/XI4/net24#3	XI0/XI1/XI4/net24#4	145.321869
+ $poly_conn
Rl25	PHI#4	PHI#5	126.098015	$poly_conn
Rl26	PHI#5	PHI#6	464.559570	$poly_conn
Rl27	CIN#7	CIN#8	222.251862	$poly_conn
Rl28	CIN#8	CIN#9	360.713379	$poly_conn
Rl29	XI0/XI1/Q	XI0/XI1/Q#2	449.174927	$poly_conn
Rl30	XI0/XI1/Q#2	XI0/XI1/Q#3	241.482620	$poly_conn
Rl31	XI0/XI0/XI1/net2	XI0/XI0/XI1/net2#2	560.713379
+ $poly_conn
Rl32	XI0/XI0/XI1/net2#2	XI0/XI0/XI1/net2#3	129.944168
+ $poly_conn
Rl33	XI0/XI0/XI0/BNOT#3	XI0/XI0/XI0/BNOT#4	60.706493
+ $poly_conn
Rl34	SOUT0#9	SOUT0#10	113.398796	$poly_conn
Rl35	net7	net7#2	306.867249	$poly_conn
Rl36	net7#2	net7#3	383.790314	$poly_conn
Rl37	RST#4	RST#5	76.098015	$poly_conn
Rl38	RST#5	RST#6	606.867249	$poly_conn
Rl39	PHI#7	PHI#8	199.979935	$poly_conn
Rl40	PHI#8	PHI#9	492.287628	$poly_conn
Rl41	SOUT1#1	SOUT1#2	142.287613	$poly_conn
Rl42	SOUT1#2	SOUT1#3	549.979919	$poly_conn
Rl43	XI1/net1	XI1/net1#2	622.251892	$poly_conn
Rl44	XI1/net1#2	XI1/net1#3	60.713398	$poly_conn
Rl45	SOUT1#4	SOUT1#5	215.364548	$poly_conn
Rl46	SOUT1#5	SOUT1#6	469.210693	$poly_conn
Rl47	XI1/XI1/XI4/PHINOT	XI1/XI1/XI4/PHINOT#2	206.461472
+ $poly_conn
Rl48	XI1/XI1/XI4/PHINOT#2	XI1/XI1/XI4/PHINOT#3	391.076874
+ $poly_conn
Rl49	XI1/XI1/XI4/net24	XI1/XI1/XI4/net24#2	490.321899
+ $poly_conn
Rl50	XI1/XI1/D	XI1/XI1/D#2	117.244949	$poly_conn
Rl51	SOUT1#7	SOUT1#8	101.860336	$poly_conn
Rl52	XI1/XI0/XI0/BNOT	XI1/XI0/XI0/BNOT#2	141.475723
+ $poly_conn
Rl53	XI1/XI0/XI0/ANOT	XI1/XI0/XI0/ANOT#2	372.251862
+ $poly_conn
Rl54	XI1/XI0/XI0/ANOT#2	XI1/XI0/XI0/ANOT#3	210.713394
+ $poly_conn
Rl55	net7#4	net7#5	418.405701	$poly_conn
Rl56	net7#5	net7#6	264.559540	$poly_conn
Rl57	XI1/XI1/D#3	XI1/XI1/D#4	53.014187	$poly_conn
Rl58	XI1/XI1/XI4/net24#3	XI1/XI1/XI4/net24#4	145.321869
+ $poly_conn
Rl59	PHI#10	PHI#11	126.098015	$poly_conn
Rl60	PHI#11	PHI#12	464.559570	$poly_conn
Rl61	net7#7	net7#8	222.251862	$poly_conn
Rl62	net7#8	net7#9	360.713379	$poly_conn
Rl63	XI1/XI1/Q	XI1/XI1/Q#2	449.174927	$poly_conn
Rl64	XI1/XI1/Q#2	XI1/XI1/Q#3	241.482620	$poly_conn
Rl65	XI1/XI0/XI1/net2	XI1/XI0/XI1/net2#2	560.713379
+ $poly_conn
Rl66	XI1/XI0/XI1/net2#2	XI1/XI0/XI1/net2#3	129.944168
+ $poly_conn
Rl67	XI1/XI0/XI0/BNOT#3	XI1/XI0/XI0/BNOT#4	60.706493
+ $poly_conn
Rl68	SOUT1#9	SOUT1#10	113.398796	$poly_conn
Rl69	net14	net14#2	306.867249	$poly_conn
Rl70	net14#2	net14#3	383.790314	$poly_conn
Rl71	RST#7	RST#8	76.098015	$poly_conn
Rl72	RST#8	RST#9	606.867249	$poly_conn
Rl73	PHI#13	PHI#14	199.979935	$poly_conn
Rl74	PHI#14	PHI#15	492.287628	$poly_conn
Rl75	SOUT2#1	SOUT2#2	142.287613	$poly_conn
Rl76	SOUT2#2	SOUT2#3	549.979919	$poly_conn
Rl77	XI2/net1	XI2/net1#2	622.251892	$poly_conn
Rl78	XI2/net1#2	XI2/net1#3	60.713398	$poly_conn
Rl79	SOUT2#4	SOUT2#5	215.364548	$poly_conn
Rl80	SOUT2#5	SOUT2#6	469.210693	$poly_conn
Rl81	XI2/XI1/XI4/PHINOT	XI2/XI1/XI4/PHINOT#2	206.461472
+ $poly_conn
Rl82	XI2/XI1/XI4/PHINOT#2	XI2/XI1/XI4/PHINOT#3	391.076874
+ $poly_conn
Rl83	XI2/XI1/XI4/net24	XI2/XI1/XI4/net24#2	490.321899
+ $poly_conn
Rl84	XI2/XI1/D	XI2/XI1/D#2	117.244949	$poly_conn
Rl85	SOUT2#7	SOUT2#8	101.860336	$poly_conn
Rl86	XI2/XI0/XI0/BNOT	XI2/XI0/XI0/BNOT#2	141.475723
+ $poly_conn
Rl87	XI2/XI0/XI0/ANOT	XI2/XI0/XI0/ANOT#2	372.251862
+ $poly_conn
Rl88	XI2/XI0/XI0/ANOT#2	XI2/XI0/XI0/ANOT#3	210.713394
+ $poly_conn
Rl89	net14#4	net14#5	418.405701	$poly_conn
Rl90	net14#5	net14#6	264.559540	$poly_conn
Rl91	XI2/XI1/D#3	XI2/XI1/D#4	53.014187	$poly_conn
Rl92	XI2/XI1/XI4/net24#3	XI2/XI1/XI4/net24#4	145.321869
+ $poly_conn
Rl93	PHI#16	PHI#17	126.098015	$poly_conn
Rl94	PHI#17	PHI#18	464.559570	$poly_conn
Rl95	net14#7	net14#8	222.251862	$poly_conn
Rl96	net14#8	net14#9	360.713379	$poly_conn
Rl97	XI2/XI1/Q	XI2/XI1/Q#2	449.174927	$poly_conn
Rl98	XI2/XI1/Q#2	XI2/XI1/Q#3	241.482620	$poly_conn
Rl99	XI2/XI0/XI1/net2	XI2/XI0/XI1/net2#2	560.713379
+ $poly_conn
Rl100	XI2/XI0/XI1/net2#2	XI2/XI0/XI1/net2#3	129.944168
+ $poly_conn
Rl101	XI2/XI0/XI0/BNOT#3	XI2/XI0/XI0/BNOT#4	60.706493
+ $poly_conn
Rl102	SOUT2#9	SOUT2#10	113.398796	$poly_conn
Rl103	net21	net21#2	306.867249	$poly_conn
Rl104	net21#2	net21#3	383.790314	$poly_conn
Rl105	RST#10	RST#11	76.098015	$poly_conn
Rl106	RST#11	RST#12	606.867249	$poly_conn
Rl107	PHI#19	PHI#20	199.979935	$poly_conn
Rl108	PHI#20	PHI#21	492.287628	$poly_conn
Rl109	SOUT3#1	SOUT3#2	142.287613	$poly_conn
Rl110	SOUT3#2	SOUT3#3	549.979919	$poly_conn
Rl111	XI3/net1	XI3/net1#2	622.251892	$poly_conn
Rl112	XI3/net1#2	XI3/net1#3	60.713398	$poly_conn
Rl113	SOUT3#4	SOUT3#5	215.364548	$poly_conn
Rl114	SOUT3#5	SOUT3#6	469.210693	$poly_conn
Rl115	XI3/XI1/XI4/PHINOT	XI3/XI1/XI4/PHINOT#2	206.461472
+ $poly_conn
Rl116	XI3/XI1/XI4/PHINOT#2	XI3/XI1/XI4/PHINOT#3	391.076874
+ $poly_conn
Rl117	XI3/XI1/XI4/net24	XI3/XI1/XI4/net24#2	490.321899
+ $poly_conn
Rl118	XI3/XI1/D	XI3/XI1/D#2	117.244949	$poly_conn
Rl119	SOUT3#7	SOUT3#8	101.860336	$poly_conn
Rl120	XI3/XI0/XI0/BNOT	XI3/XI0/XI0/BNOT#2	141.475723
+ $poly_conn
Rl121	XI3/XI0/XI0/ANOT	XI3/XI0/XI0/ANOT#2	372.251862
+ $poly_conn
Rl122	XI3/XI0/XI0/ANOT#2	XI3/XI0/XI0/ANOT#3	210.713394
+ $poly_conn
Rl123	net21#4	net21#5	418.405701	$poly_conn
Rl124	net21#5	net21#6	264.559540	$poly_conn
Rl125	XI3/XI1/D#3	XI3/XI1/D#4	53.014187	$poly_conn
Rl126	XI3/XI1/XI4/net24#3	XI3/XI1/XI4/net24#4	145.321869
+ $poly_conn
Rl127	PHI#22	PHI#23	126.098015	$poly_conn
Rl128	PHI#23	PHI#24	464.559570	$poly_conn
Rl129	net21#7	net21#8	222.251862	$poly_conn
Rl130	net21#8	net21#9	360.713379	$poly_conn
Rl131	XI3/XI1/Q	XI3/XI1/Q#2	449.174927	$poly_conn
Rl132	XI3/XI1/Q#2	XI3/XI1/Q#3	241.482620	$poly_conn
Rl133	XI3/XI0/XI1/net2	XI3/XI0/XI1/net2#2	560.713379
+ $poly_conn
Rl134	XI3/XI0/XI1/net2#2	XI3/XI0/XI1/net2#3	129.944168
+ $poly_conn
Rl135	XI3/XI0/XI0/BNOT#3	XI3/XI0/XI0/BNOT#4	60.706493
+ $poly_conn
Rl136	SOUT3#9	SOUT3#10	113.398796	$poly_conn
Rk1	VDD#1	VDD#2	31.000000	$metal1_conn
Rk2	GND#1	GND#2	75.000000	$metal1_conn
Rk3	XI0/XI1/D#5	XI0/XI1/D#6	37.501156	$metal1_conn
Rk4	VDD#3	VDD#4	31.000000	$metal1_conn
Rk5	VDD#5	VDD#6	31.001158	$metal1_conn
Rk6	GND#3	GND#4	75.000000	$metal1_conn
Rk7	XI0/XI0/XI0/ANOT#4	XI0/XI0/XI0/ANOT#5	31.001158
+ $metal1_conn
Rk8	XI0/XI0/XI0/ANOT#6	XI0/XI0/XI0/ANOT#7	75.001549
+ $metal1_conn
Rk9	XI0/XI1/XI4/PHINOT#4	XI0/XI1/XI4/PHINOT#5	31.001158
+ $metal1_conn
Rk10	XI0/XI1/XI4/PHINOT#6	XI0/XI1/XI4/PHINOT#7	75.001549
+ $metal1_conn
Rk11	VDD#7	VDD#8	31.000000	$metal1_conn
Rk12	XI0/XI1/XI5/net13#2	XI0/XI1/XI5/net13#3	0.001157
+ $metal1_conn
Rk13	XI0/XI1/XI5/net13#3	XI0/XI1/XI5/net13#5	0.232308
+ $metal1_conn
Rk15	XI0/XI1/XI5/net13	XI0/XI1/XI5/net13#2	37.500000
+ $metal1_conn
Rk16	XI0/XI1/XI5/net13#4	XI0/XI1/XI5/net13#5	37.500000
+ $metal1_conn
Rk17	GND#5	GND#6	75.000000	$metal1_conn
Rk18	XI0/XI1/D#7	XI0/XI1/D#9	0.001157	$metal1_conn
Rk19	XI0/XI1/D#9	XI0/XI1/D#10	0.120231	$metal1_conn
Rk20	XI0/XI1/D#10	XI0/XI1/D#12	0.114924	$metal1_conn
Rk22	XI0/XI1/D#8	XI0/XI1/D#9	31.000000	$metal1_conn
Rk23	XI0/XI1/D#11	XI0/XI1/D#12	31.000000	$metal1_conn
Rk24	XI0/XI0/XI0/BNOT#5	XI0/XI0/XI0/BNOT#6	31.001158
+ $metal1_conn
Rk25	GND#7	GND#8	37.500000	$metal1_conn
Rk26	VDD#9	VDD#10	31.000000	$metal1_conn
Rk27	XI0/XI0/XI0/BNOT#7	XI0/XI0/XI0/BNOT#8	75.001549
+ $metal1_conn
Rk28	XI0/XI1/D#14	XI0/XI1/D#15	0.450092	$metal1_conn
Rk29	XI0/XI1/D#15	XI0/XI1/D#16	0.266916	$metal1_conn
Rk30	GND#9	GND#10	37.500000	$metal1_conn
Rk31	VDD#11	VDD#12	31.000000	$metal1_conn
Rk32	XI0/XI1/Q#4	XI0/XI1/Q#5	15.500000	$metal1_conn
Rk33	XI0/XI1/XI4/net24#5	XI0/XI1/XI4/net24#6	37.500000
+ $metal1_conn
Rk34	XI0/XI1/XI4/PHINOT#2	XI0/XI1/XI4/PHINOT#9	46.516312
+ $metal1_conn
Rk35	VDD#13	VDD#14	15.500000	$metal1_conn
Rk36	GND#11	GND#12	37.500000	$metal1_conn
Rk37	VDD#15	VDD#16	15.500000	$metal1_conn
Rk38	GND#13	GND#14	37.500000	$metal1_conn
Rk39	XI0/XI1/Q#6	XI0/XI1/Q#7	0.365328	$metal1_conn
Rk40	XI0/XI0/XI0/ANOT#2	XI0/XI0/XI0/ANOT#9	46.855549
+ $metal1_conn
Rk42	XI0/XI0/XI1/XI0/net13#2	XI0/XI0/XI1/XI0/net13#4
+ 0.232308	$metal1_conn
Rk43	XI0/XI0/XI1/XI0/net13#4	XI0/XI0/XI1/XI0/net13#5
+ 37.501156	$metal1_conn
Rk44	XI0/XI0/XI1/XI0/net13	XI0/XI0/XI1/XI0/net13#2	37.500000
+ $metal1_conn
Rk46	XI0/XI0/XI1/net2#5	XI0/XI0/XI1/net2#8	0.237615
+ $metal1_conn
Rk47	XI0/XI0/XI1/net2#8	XI0/XI0/XI1/net2#9	0.001157
+ $metal1_conn
Rk48	XI0/XI0/XI1/net2#4	XI0/XI0/XI1/net2#5	31.000000
+ $metal1_conn
Rk49	XI0/XI0/XI1/net2#7	XI0/XI0/XI1/net2#8	31.000000
+ $metal1_conn
Rk50	XI0/XI1/D#17	XI0/XI1/D#2	0.292025	$metal1_conn
Rk51	XI0/XI1/D#2	XI0/XI1/D#19	0.466581	$metal1_conn
Rk52	CIN#5	CIN#11	45.731133	$metal1_conn
Rk53	SOUT0#11	SOUT0#8	0.156463	$metal1_conn
Rk54	SOUT0#8	SOUT0#2	45.836899	$metal1_conn
Rk55	VDD#17	VDD#18	15.500000	$metal1_conn
Rk56	GND#15	GND#16	37.500000	$metal1_conn
Rk57	VDD#19	VDD#20	31.001158	$metal1_conn
Rk58	XI0/XI1/XI4/net24#4	XI0/XI1/XI4/net24#2	45.402275
+ $metal1_conn
Rk59	XI0/XI1/XI4/net24#2	XI0/XI1/XI4/net24#9	0.668824
+ $metal1_conn
Rk60	XI0/XI1/D#20	XI0/XI1/D#4	45.082287	$metal1_conn
Rk61	XI0/XI1/XI4/net24#10	XI0/XI1/XI4/net24#11	15.500000
+ $metal1_conn
Rk62	XI0/XI1/XI4/net24#12	XI0/XI1/XI4/net24#13	0.688239
+ $metal1_conn
Rk63	XI0/XI1/Q#8	XI0/XI1/Q#9	37.500000	$metal1_conn
Rk64	XI0/XI0/XI1/net2#11	XI0/XI0/XI1/net2#12	0.001157
+ $metal1_conn
Rk65	XI0/XI0/XI1/net2#12	XI0/XI0/XI1/net2#13	0.169876
+ $metal1_conn
Rk66	XI0/XI0/XI1/net2#10	XI0/XI0/XI1/net2#11	37.500000
+ $metal1_conn
Rk67	XI0/net1#4	XI0/net1#2	46.295746	$metal1_conn
Rk68	XI0/XI0/XI0/BNOT#9	XI0/XI0/XI0/BNOT#10	2.761596
+ $metal1_conn
Rk69	XI0/XI0/XI0/BNOT#11	XI0/XI0/XI0/BNOT#2	45.782852
+ $metal1_conn
Rk71	XI0/net1#6	XI0/net1#9	0.322022	$metal1_conn
Rk72	XI0/net1#9	XI0/net1#11	0.257371	$metal1_conn
Rk74	XI0/net1#7	XI0/net1#6	15.500000	$metal1_conn
Rk75	XI0/net1#10	XI0/net1#11	15.500000	$metal1_conn
Rk77	XI0/net1#14	XI0/net1#16	0.305642	$metal1_conn
Rk78	XI0/net1#16	XI0/net1#18	0.240992	$metal1_conn
Rk80	XI0/net1#13	XI0/net1#14	37.500000	$metal1_conn
Rk81	XI0/net1#17	XI0/net1#18	37.500000	$metal1_conn
Rk82	CIN	CIN#12	0.221625	$metal1_conn
Rk83	CIN#12	CIN#13	0.688033	$metal1_conn
Rk84	CIN#13	CIN#8	46.508373	$metal1_conn
Rk85	VDD#21	VDD#22	31.000000	$metal1_conn
Rk86	VDD#23	VDD#24	31.000000	$metal1_conn
Rk87	GND#17	GND#18	75.000000	$metal1_conn
Rk88	GND#19	GND#20	75.000000	$metal1_conn
Rk89	XI0/XI1/Q#2	XI0/XI1/Q#11	45.453136	$metal1_conn
Rk90	XI0/XI1/Q#11	XI0/XI1/Q#12	0.376483	$metal1_conn
Rk91	XI0/XI0/XI1/net2#2	XI0/XI0/XI1/net2#15	45.440205
+ $metal1_conn
Rk92	XI0/XI0/XI1/net2#15	XI0/XI0/XI1/net2#16	0.343778
+ $metal1_conn
Rk93	XI0/XI0/XI0/BNOT#4	XI0/XI0/XI0/BNOT#14	45.156464
+ $metal1_conn
Rk94	SOUT0#14	SOUT0#15	31.001158	$metal1_conn
Rk95	VDD#25	VDD#26	15.500000	$metal1_conn
Rk96	GND#21	GND#22	37.500000	$metal1_conn
Rk97	net7#10	net7#11	31.001158	$metal1_conn
Rk98	SOUT0#16	SOUT0#17	75.001549	$metal1_conn
Rk99	net7#12	net7#13	75.001549	$metal1_conn
Rk100	SOUT0#18	SOUT0#19	1.205139	$metal1_conn
Rk101	SOUT0#20	SOUT0#5	46.880508	$metal1_conn
Rk102	SOUT0#22	SOUT0#10	0.248977	$metal1_conn
Rk103	SOUT0#10	SOUT0#24	0.776813	$metal1_conn
Rk104	net7#14	net7#15	0.885980	$metal1_conn
Rk105	VDD#27	VDD#28	31.000000	$metal1_conn
Rk106	GND#23	GND#24	75.000000	$metal1_conn
Rk107	XI1/XI1/D#5	XI1/XI1/D#6	37.501156	$metal1_conn
Rk108	VDD#29	VDD#30	31.000000	$metal1_conn
Rk109	VDD#31	VDD#32	31.001158	$metal1_conn
Rk110	GND#25	GND#26	75.000000	$metal1_conn
Rk111	XI1/XI0/XI0/ANOT#4	XI1/XI0/XI0/ANOT#5	31.001158
+ $metal1_conn
Rk112	XI1/XI0/XI0/ANOT#6	XI1/XI0/XI0/ANOT#7	75.001549
+ $metal1_conn
Rk113	XI1/XI1/XI4/PHINOT#4	XI1/XI1/XI4/PHINOT#5	31.001158
+ $metal1_conn
Rk114	XI1/XI1/XI4/PHINOT#6	XI1/XI1/XI4/PHINOT#7	75.001549
+ $metal1_conn
Rk115	VDD#33	VDD#34	31.000000	$metal1_conn
Rk116	XI1/XI1/XI5/net13#2	XI1/XI1/XI5/net13#3	0.001157
+ $metal1_conn
Rk117	XI1/XI1/XI5/net13#3	XI1/XI1/XI5/net13#5	0.232308
+ $metal1_conn
Rk119	XI1/XI1/XI5/net13	XI1/XI1/XI5/net13#2	37.500000
+ $metal1_conn
Rk120	XI1/XI1/XI5/net13#4	XI1/XI1/XI5/net13#5	37.500000
+ $metal1_conn
Rk121	GND#27	GND#28	75.000000	$metal1_conn
Rk122	XI1/XI1/D#7	XI1/XI1/D#9	0.001157	$metal1_conn
Rk123	XI1/XI1/D#9	XI1/XI1/D#10	0.120231	$metal1_conn
Rk124	XI1/XI1/D#10	XI1/XI1/D#12	0.114924	$metal1_conn
Rk126	XI1/XI1/D#8	XI1/XI1/D#9	31.000000	$metal1_conn
Rk127	XI1/XI1/D#11	XI1/XI1/D#12	31.000000	$metal1_conn
Rk128	XI1/XI0/XI0/BNOT#5	XI1/XI0/XI0/BNOT#6	31.001158
+ $metal1_conn
Rk129	GND#29	GND#30	37.500000	$metal1_conn
Rk130	VDD#35	VDD#36	31.000000	$metal1_conn
Rk131	XI1/XI0/XI0/BNOT#7	XI1/XI0/XI0/BNOT#8	75.001549
+ $metal1_conn
Rk132	XI1/XI1/D#14	XI1/XI1/D#15	0.450092	$metal1_conn
Rk133	XI1/XI1/D#15	XI1/XI1/D#16	0.266916	$metal1_conn
Rk134	GND#31	GND#32	37.500000	$metal1_conn
Rk135	VDD#37	VDD#38	31.000000	$metal1_conn
Rk136	XI1/XI1/Q#4	XI1/XI1/Q#5	15.500000	$metal1_conn
Rk137	XI1/XI1/XI4/net24#5	XI1/XI1/XI4/net24#6	37.500000
+ $metal1_conn
Rk138	XI1/XI1/XI4/PHINOT#2	XI1/XI1/XI4/PHINOT#9	46.516312
+ $metal1_conn
Rk139	VDD#39	VDD#40	15.500000	$metal1_conn
Rk140	GND#33	GND#34	37.500000	$metal1_conn
Rk141	VDD#41	VDD#42	15.500000	$metal1_conn
Rk142	GND#35	GND#36	37.500000	$metal1_conn
Rk143	XI1/XI1/Q#6	XI1/XI1/Q#7	0.365328	$metal1_conn
Rk144	XI1/XI0/XI0/ANOT#2	XI1/XI0/XI0/ANOT#9	46.855549
+ $metal1_conn
Rk146	XI1/XI0/XI1/XI0/net13#2	XI1/XI0/XI1/XI0/net13#4
+ 0.232308	$metal1_conn
Rk147	XI1/XI0/XI1/XI0/net13#4	XI1/XI0/XI1/XI0/net13#5
+ 37.501156	$metal1_conn
Rk148	XI1/XI0/XI1/XI0/net13	XI1/XI0/XI1/XI0/net13#2	37.500000
+ $metal1_conn
Rk150	XI1/XI0/XI1/net2#5	XI1/XI0/XI1/net2#8	0.237615
+ $metal1_conn
Rk151	XI1/XI0/XI1/net2#8	XI1/XI0/XI1/net2#9	0.001157
+ $metal1_conn
Rk152	XI1/XI0/XI1/net2#4	XI1/XI0/XI1/net2#5	31.000000
+ $metal1_conn
Rk153	XI1/XI0/XI1/net2#7	XI1/XI0/XI1/net2#8	31.000000
+ $metal1_conn
Rk154	XI1/XI1/D#17	XI1/XI1/D#2	0.292025	$metal1_conn
Rk155	XI1/XI1/D#2	XI1/XI1/D#19	0.466581	$metal1_conn
Rk156	net7#5	net7#17	45.731133	$metal1_conn
Rk157	SOUT1#11	SOUT1#8	0.156463	$metal1_conn
Rk158	SOUT1#8	SOUT1#2	45.836899	$metal1_conn
Rk159	VDD#43	VDD#44	15.500000	$metal1_conn
Rk160	GND#37	GND#38	37.500000	$metal1_conn
Rk161	VDD#45	VDD#46	31.001158	$metal1_conn
Rk162	XI1/XI1/XI4/net24#4	XI1/XI1/XI4/net24#2	45.402275
+ $metal1_conn
Rk163	XI1/XI1/XI4/net24#2	XI1/XI1/XI4/net24#9	0.668824
+ $metal1_conn
Rk164	XI1/XI1/D#20	XI1/XI1/D#4	45.082287	$metal1_conn
Rk165	XI1/XI1/XI4/net24#10	XI1/XI1/XI4/net24#11	15.500000
+ $metal1_conn
Rk166	XI1/XI1/XI4/net24#12	XI1/XI1/XI4/net24#13	0.688239
+ $metal1_conn
Rk167	XI1/XI1/Q#8	XI1/XI1/Q#9	37.500000	$metal1_conn
Rk168	XI1/XI0/XI1/net2#11	XI1/XI0/XI1/net2#12	0.001157
+ $metal1_conn
Rk169	XI1/XI0/XI1/net2#12	XI1/XI0/XI1/net2#13	0.169876
+ $metal1_conn
Rk170	XI1/XI0/XI1/net2#10	XI1/XI0/XI1/net2#11	37.500000
+ $metal1_conn
Rk171	XI1/net1#4	XI1/net1#2	46.295746	$metal1_conn
Rk172	XI1/XI0/XI0/BNOT#9	XI1/XI0/XI0/BNOT#10	2.761596
+ $metal1_conn
Rk173	XI1/XI0/XI0/BNOT#11	XI1/XI0/XI0/BNOT#2	45.782852
+ $metal1_conn
Rk175	XI1/net1#6	XI1/net1#9	0.322022	$metal1_conn
Rk176	XI1/net1#9	XI1/net1#11	0.257371	$metal1_conn
Rk178	XI1/net1#7	XI1/net1#6	15.500000	$metal1_conn
Rk179	XI1/net1#10	XI1/net1#11	15.500000	$metal1_conn
Rk181	XI1/net1#14	XI1/net1#16	0.305642	$metal1_conn
Rk182	XI1/net1#16	XI1/net1#18	0.240992	$metal1_conn
Rk184	XI1/net1#13	XI1/net1#14	37.500000	$metal1_conn
Rk185	XI1/net1#17	XI1/net1#18	37.500000	$metal1_conn
Rk186	net7#8	net7#19	46.508373	$metal1_conn
Rk187	net7#19	net7#20	0.688033	$metal1_conn
Rk188	net7#20	net7#21	1.364706	$metal1_conn
Rk189	VDD#47	VDD#48	31.000000	$metal1_conn
Rk190	VDD#49	VDD#50	31.000000	$metal1_conn
Rk191	GND#39	GND#40	75.000000	$metal1_conn
Rk192	GND#41	GND#42	75.000000	$metal1_conn
Rk193	XI1/XI1/Q#2	XI1/XI1/Q#11	45.453136	$metal1_conn
Rk194	XI1/XI1/Q#11	XI1/XI1/Q#12	0.376483	$metal1_conn
Rk195	XI1/XI0/XI1/net2#2	XI1/XI0/XI1/net2#15	45.440205
+ $metal1_conn
Rk196	XI1/XI0/XI1/net2#15	XI1/XI0/XI1/net2#16	0.343778
+ $metal1_conn
Rk197	XI1/XI0/XI0/BNOT#4	XI1/XI0/XI0/BNOT#14	45.156464
+ $metal1_conn
Rk198	SOUT1#14	SOUT1#15	31.001158	$metal1_conn
Rk199	VDD#51	VDD#52	15.500000	$metal1_conn
Rk200	GND#43	GND#44	37.500000	$metal1_conn
Rk201	net14#10	net14#11	31.001158	$metal1_conn
Rk202	SOUT1#16	SOUT1#17	75.001549	$metal1_conn
Rk203	net14#12	net14#13	75.001549	$metal1_conn
Rk204	SOUT1#18	SOUT1#19	1.205139	$metal1_conn
Rk205	SOUT1#20	SOUT1#5	46.880508	$metal1_conn
Rk206	SOUT1#22	SOUT1#10	0.248977	$metal1_conn
Rk207	SOUT1#10	SOUT1#24	0.776813	$metal1_conn
Rk208	net14#14	net14#15	0.885980	$metal1_conn
Rk209	VDD#53	VDD#54	31.000000	$metal1_conn
Rk210	GND#45	GND#46	75.000000	$metal1_conn
Rk211	XI2/XI1/D#5	XI2/XI1/D#6	37.501156	$metal1_conn
Rk212	VDD#55	VDD#56	31.000000	$metal1_conn
Rk213	VDD#57	VDD#58	31.001158	$metal1_conn
Rk214	GND#47	GND#48	75.000000	$metal1_conn
Rk215	XI2/XI0/XI0/ANOT#4	XI2/XI0/XI0/ANOT#5	31.001158
+ $metal1_conn
Rk216	XI2/XI0/XI0/ANOT#6	XI2/XI0/XI0/ANOT#7	75.001549
+ $metal1_conn
Rk217	XI2/XI1/XI4/PHINOT#4	XI2/XI1/XI4/PHINOT#5	31.001158
+ $metal1_conn
Rk218	XI2/XI1/XI4/PHINOT#6	XI2/XI1/XI4/PHINOT#7	75.001549
+ $metal1_conn
Rk219	VDD#59	VDD#60	31.000000	$metal1_conn
Rk220	XI2/XI1/XI5/net13#2	XI2/XI1/XI5/net13#3	0.001157
+ $metal1_conn
Rk221	XI2/XI1/XI5/net13#3	XI2/XI1/XI5/net13#5	0.232308
+ $metal1_conn
Rk223	XI2/XI1/XI5/net13	XI2/XI1/XI5/net13#2	37.500000
+ $metal1_conn
Rk224	XI2/XI1/XI5/net13#4	XI2/XI1/XI5/net13#5	37.500000
+ $metal1_conn
Rk225	GND#49	GND#50	75.000000	$metal1_conn
Rk226	XI2/XI1/D#7	XI2/XI1/D#9	0.001157	$metal1_conn
Rk227	XI2/XI1/D#9	XI2/XI1/D#10	0.120231	$metal1_conn
Rk228	XI2/XI1/D#10	XI2/XI1/D#12	0.114924	$metal1_conn
Rk230	XI2/XI1/D#8	XI2/XI1/D#9	31.000000	$metal1_conn
Rk231	XI2/XI1/D#11	XI2/XI1/D#12	31.000000	$metal1_conn
Rk232	XI2/XI0/XI0/BNOT#5	XI2/XI0/XI0/BNOT#6	31.001158
+ $metal1_conn
Rk233	GND#51	GND#52	37.500000	$metal1_conn
Rk234	VDD#61	VDD#62	31.000000	$metal1_conn
Rk235	XI2/XI0/XI0/BNOT#7	XI2/XI0/XI0/BNOT#8	75.001549
+ $metal1_conn
Rk236	XI2/XI1/D#14	XI2/XI1/D#15	0.450092	$metal1_conn
Rk237	XI2/XI1/D#15	XI2/XI1/D#16	0.266916	$metal1_conn
Rk238	GND#53	GND#54	37.500000	$metal1_conn
Rk239	VDD#63	VDD#64	31.000000	$metal1_conn
Rk240	XI2/XI1/Q#4	XI2/XI1/Q#5	15.500000	$metal1_conn
Rk241	XI2/XI1/XI4/net24#5	XI2/XI1/XI4/net24#6	37.500000
+ $metal1_conn
Rk242	XI2/XI1/XI4/PHINOT#2	XI2/XI1/XI4/PHINOT#9	46.516312
+ $metal1_conn
Rk243	VDD#65	VDD#66	15.500000	$metal1_conn
Rk244	GND#55	GND#56	37.500000	$metal1_conn
Rk245	VDD#67	VDD#68	15.500000	$metal1_conn
Rk246	GND#57	GND#58	37.500000	$metal1_conn
Rk247	XI2/XI1/Q#6	XI2/XI1/Q#7	0.365328	$metal1_conn
Rk248	XI2/XI0/XI0/ANOT#2	XI2/XI0/XI0/ANOT#9	46.855549
+ $metal1_conn
Rk250	XI2/XI0/XI1/XI0/net13#2	XI2/XI0/XI1/XI0/net13#4
+ 0.232308	$metal1_conn
Rk251	XI2/XI0/XI1/XI0/net13#4	XI2/XI0/XI1/XI0/net13#5
+ 37.501156	$metal1_conn
Rk252	XI2/XI0/XI1/XI0/net13	XI2/XI0/XI1/XI0/net13#2	37.500000
+ $metal1_conn
Rk254	XI2/XI0/XI1/net2#5	XI2/XI0/XI1/net2#8	0.237615
+ $metal1_conn
Rk255	XI2/XI0/XI1/net2#8	XI2/XI0/XI1/net2#9	0.001157
+ $metal1_conn
Rk256	XI2/XI0/XI1/net2#4	XI2/XI0/XI1/net2#5	31.000000
+ $metal1_conn
Rk257	XI2/XI0/XI1/net2#7	XI2/XI0/XI1/net2#8	31.000000
+ $metal1_conn
Rk258	XI2/XI1/D#17	XI2/XI1/D#2	0.292025	$metal1_conn
Rk259	XI2/XI1/D#2	XI2/XI1/D#19	0.466581	$metal1_conn
Rk260	net14#5	net14#17	45.731133	$metal1_conn
Rk261	SOUT2#11	SOUT2#8	0.156463	$metal1_conn
Rk262	SOUT2#8	SOUT2#2	45.836899	$metal1_conn
Rk263	VDD#69	VDD#70	15.500000	$metal1_conn
Rk264	GND#59	GND#60	37.500000	$metal1_conn
Rk265	VDD#71	VDD#72	31.001158	$metal1_conn
Rk266	XI2/XI1/XI4/net24#4	XI2/XI1/XI4/net24#2	45.402275
+ $metal1_conn
Rk267	XI2/XI1/XI4/net24#2	XI2/XI1/XI4/net24#9	0.668824
+ $metal1_conn
Rk268	XI2/XI1/D#20	XI2/XI1/D#4	45.082287	$metal1_conn
Rk269	XI2/XI1/XI4/net24#10	XI2/XI1/XI4/net24#11	15.500000
+ $metal1_conn
Rk270	XI2/XI1/XI4/net24#12	XI2/XI1/XI4/net24#13	0.688239
+ $metal1_conn
Rk271	XI2/XI1/Q#8	XI2/XI1/Q#9	37.500000	$metal1_conn
Rk272	XI2/XI0/XI1/net2#11	XI2/XI0/XI1/net2#12	0.001157
+ $metal1_conn
Rk273	XI2/XI0/XI1/net2#12	XI2/XI0/XI1/net2#13	0.169876
+ $metal1_conn
Rk274	XI2/XI0/XI1/net2#10	XI2/XI0/XI1/net2#11	37.500000
+ $metal1_conn
Rk275	XI2/net1#4	XI2/net1#2	46.295746	$metal1_conn
Rk276	XI2/XI0/XI0/BNOT#9	XI2/XI0/XI0/BNOT#10	2.761596
+ $metal1_conn
Rk277	XI2/XI0/XI0/BNOT#11	XI2/XI0/XI0/BNOT#2	45.782852
+ $metal1_conn
Rk279	XI2/net1#6	XI2/net1#9	0.322022	$metal1_conn
Rk280	XI2/net1#9	XI2/net1#11	0.257371	$metal1_conn
Rk282	XI2/net1#7	XI2/net1#6	15.500000	$metal1_conn
Rk283	XI2/net1#10	XI2/net1#11	15.500000	$metal1_conn
Rk285	XI2/net1#14	XI2/net1#16	0.305642	$metal1_conn
Rk286	XI2/net1#16	XI2/net1#18	0.240992	$metal1_conn
Rk288	XI2/net1#13	XI2/net1#14	37.500000	$metal1_conn
Rk289	XI2/net1#17	XI2/net1#18	37.500000	$metal1_conn
Rk290	net14#8	net14#19	46.508373	$metal1_conn
Rk291	net14#19	net14#20	0.688033	$metal1_conn
Rk292	net14#20	net14#21	1.364706	$metal1_conn
Rk293	VDD#73	VDD#74	31.000000	$metal1_conn
Rk294	VDD#75	VDD#76	31.000000	$metal1_conn
Rk295	GND#61	GND#62	75.000000	$metal1_conn
Rk296	GND#63	GND#64	75.000000	$metal1_conn
Rk297	XI2/XI1/Q#2	XI2/XI1/Q#11	45.453136	$metal1_conn
Rk298	XI2/XI1/Q#11	XI2/XI1/Q#12	0.376483	$metal1_conn
Rk299	XI2/XI0/XI1/net2#2	XI2/XI0/XI1/net2#15	45.440205
+ $metal1_conn
Rk300	XI2/XI0/XI1/net2#15	XI2/XI0/XI1/net2#16	0.343778
+ $metal1_conn
Rk301	XI2/XI0/XI0/BNOT#4	XI2/XI0/XI0/BNOT#14	45.156464
+ $metal1_conn
Rk302	SOUT2#14	SOUT2#15	31.001158	$metal1_conn
Rk303	VDD#77	VDD#78	15.500000	$metal1_conn
Rk304	GND#65	GND#66	37.500000	$metal1_conn
Rk305	net21#10	net21#11	31.001158	$metal1_conn
Rk306	SOUT2#16	SOUT2#17	75.001549	$metal1_conn
Rk307	net21#12	net21#13	75.001549	$metal1_conn
Rk308	SOUT2#18	SOUT2#19	1.205139	$metal1_conn
Rk309	SOUT2#20	SOUT2#5	46.880508	$metal1_conn
Rk310	SOUT2#22	SOUT2#10	0.248977	$metal1_conn
Rk311	SOUT2#10	SOUT2#24	0.776813	$metal1_conn
Rk312	net21#14	net21#15	0.885980	$metal1_conn
Rk313	VDD#79	VDD#80	31.000000	$metal1_conn
Rk314	GND#67	GND#68	75.000000	$metal1_conn
Rk315	XI3/XI1/D#5	XI3/XI1/D#6	37.501156	$metal1_conn
Rk316	VDD#81	VDD#82	31.000000	$metal1_conn
Rk317	VDD#83	VDD#84	31.001158	$metal1_conn
Rk318	GND#69	GND#70	75.000000	$metal1_conn
Rk319	XI3/XI0/XI0/ANOT#4	XI3/XI0/XI0/ANOT#5	31.001158
+ $metal1_conn
Rk320	XI3/XI0/XI0/ANOT#6	XI3/XI0/XI0/ANOT#7	75.001549
+ $metal1_conn
Rk321	XI3/XI1/XI4/PHINOT#4	XI3/XI1/XI4/PHINOT#5	31.001158
+ $metal1_conn
Rk322	XI3/XI1/XI4/PHINOT#6	XI3/XI1/XI4/PHINOT#7	75.001549
+ $metal1_conn
Rk323	VDD#85	VDD#86	31.000000	$metal1_conn
Rk324	XI3/XI1/XI5/net13#2	XI3/XI1/XI5/net13#3	0.001157
+ $metal1_conn
Rk325	XI3/XI1/XI5/net13#3	XI3/XI1/XI5/net13#5	0.232308
+ $metal1_conn
Rk327	XI3/XI1/XI5/net13	XI3/XI1/XI5/net13#2	37.500000
+ $metal1_conn
Rk328	XI3/XI1/XI5/net13#4	XI3/XI1/XI5/net13#5	37.500000
+ $metal1_conn
Rk329	GND#71	GND#72	75.000000	$metal1_conn
Rk330	XI3/XI1/D#7	XI3/XI1/D#9	0.001157	$metal1_conn
Rk331	XI3/XI1/D#9	XI3/XI1/D#10	0.120231	$metal1_conn
Rk332	XI3/XI1/D#10	XI3/XI1/D#12	0.114924	$metal1_conn
Rk334	XI3/XI1/D#8	XI3/XI1/D#9	31.000000	$metal1_conn
Rk335	XI3/XI1/D#11	XI3/XI1/D#12	31.000000	$metal1_conn
Rk336	XI3/XI0/XI0/BNOT#5	XI3/XI0/XI0/BNOT#6	31.001158
+ $metal1_conn
Rk337	GND#73	GND#74	37.500000	$metal1_conn
Rk338	VDD#87	VDD#88	31.000000	$metal1_conn
Rk339	XI3/XI0/XI0/BNOT#7	XI3/XI0/XI0/BNOT#8	75.001549
+ $metal1_conn
Rk340	XI3/XI1/D#14	XI3/XI1/D#15	0.450092	$metal1_conn
Rk341	XI3/XI1/D#15	XI3/XI1/D#16	0.266916	$metal1_conn
Rk342	GND#75	GND#76	37.500000	$metal1_conn
Rk343	VDD#89	VDD#90	31.000000	$metal1_conn
Rk344	XI3/XI1/Q#4	XI3/XI1/Q#5	15.500000	$metal1_conn
Rk345	XI3/XI1/XI4/net24#5	XI3/XI1/XI4/net24#6	37.500000
+ $metal1_conn
Rk346	XI3/XI1/XI4/PHINOT#2	XI3/XI1/XI4/PHINOT#9	46.516312
+ $metal1_conn
Rk347	VDD#91	VDD#92	15.500000	$metal1_conn
Rk348	GND#77	GND#78	37.500000	$metal1_conn
Rk349	VDD#93	VDD#94	15.500000	$metal1_conn
Rk350	GND#79	GND#80	37.500000	$metal1_conn
Rk351	XI3/XI1/Q#6	XI3/XI1/Q#7	0.365328	$metal1_conn
Rk352	XI3/XI0/XI0/ANOT#2	XI3/XI0/XI0/ANOT#9	46.855549
+ $metal1_conn
Rk354	XI3/XI0/XI1/XI0/net13#2	XI3/XI0/XI1/XI0/net13#4
+ 0.232308	$metal1_conn
Rk355	XI3/XI0/XI1/XI0/net13#4	XI3/XI0/XI1/XI0/net13#5
+ 37.501156	$metal1_conn
Rk356	XI3/XI0/XI1/XI0/net13	XI3/XI0/XI1/XI0/net13#2	37.500000
+ $metal1_conn
Rk358	XI3/XI0/XI1/net2#5	XI3/XI0/XI1/net2#8	0.237615
+ $metal1_conn
Rk359	XI3/XI0/XI1/net2#8	XI3/XI0/XI1/net2#9	0.001157
+ $metal1_conn
Rk360	XI3/XI0/XI1/net2#4	XI3/XI0/XI1/net2#5	31.000000
+ $metal1_conn
Rk361	XI3/XI0/XI1/net2#7	XI3/XI0/XI1/net2#8	31.000000
+ $metal1_conn
Rk362	XI3/XI1/D#17	XI3/XI1/D#2	0.292025	$metal1_conn
Rk363	XI3/XI1/D#2	XI3/XI1/D#19	0.466581	$metal1_conn
Rk364	net21#5	net21#17	45.731133	$metal1_conn
Rk365	SOUT3#11	SOUT3#8	0.156463	$metal1_conn
Rk366	SOUT3#8	SOUT3#2	45.836899	$metal1_conn
Rk367	VDD#95	VDD#96	15.500000	$metal1_conn
Rk368	GND#81	GND#82	37.500000	$metal1_conn
Rk369	VDD#97	VDD#98	31.001158	$metal1_conn
Rk370	XI3/XI1/XI4/net24#4	XI3/XI1/XI4/net24#2	45.402275
+ $metal1_conn
Rk371	XI3/XI1/XI4/net24#2	XI3/XI1/XI4/net24#9	0.668824
+ $metal1_conn
Rk372	XI3/XI1/D#20	XI3/XI1/D#4	45.082287	$metal1_conn
Rk373	XI3/XI1/XI4/net24#10	XI3/XI1/XI4/net24#11	15.500000
+ $metal1_conn
Rk374	XI3/XI1/XI4/net24#12	XI3/XI1/XI4/net24#13	0.688239
+ $metal1_conn
Rk375	XI3/XI1/Q#8	XI3/XI1/Q#9	37.500000	$metal1_conn
Rk376	XI3/XI0/XI1/net2#11	XI3/XI0/XI1/net2#12	0.001157
+ $metal1_conn
Rk377	XI3/XI0/XI1/net2#12	XI3/XI0/XI1/net2#13	0.169876
+ $metal1_conn
Rk378	XI3/XI0/XI1/net2#10	XI3/XI0/XI1/net2#11	37.500000
+ $metal1_conn
Rk379	XI3/net1#4	XI3/net1#2	46.295746	$metal1_conn
Rk380	XI3/XI0/XI0/BNOT#9	XI3/XI0/XI0/BNOT#10	2.761596
+ $metal1_conn
Rk381	XI3/XI0/XI0/BNOT#11	XI3/XI0/XI0/BNOT#2	45.782852
+ $metal1_conn
Rk383	XI3/net1#6	XI3/net1#9	0.322022	$metal1_conn
Rk384	XI3/net1#9	XI3/net1#11	0.257371	$metal1_conn
Rk386	XI3/net1#7	XI3/net1#6	15.500000	$metal1_conn
Rk387	XI3/net1#10	XI3/net1#11	15.500000	$metal1_conn
Rk389	XI3/net1#14	XI3/net1#16	0.305642	$metal1_conn
Rk390	XI3/net1#16	XI3/net1#18	0.240992	$metal1_conn
Rk392	XI3/net1#13	XI3/net1#14	37.500000	$metal1_conn
Rk393	XI3/net1#17	XI3/net1#18	37.500000	$metal1_conn
Rk394	net21#8	net21#19	46.508373	$metal1_conn
Rk395	net21#19	net21#20	0.688033	$metal1_conn
Rk396	net21#20	net21#21	1.364706	$metal1_conn
Rk397	VDD#99	VDD#100	31.000000	$metal1_conn
Rk398	VDD#101	VDD#102	31.000000	$metal1_conn
Rk399	GND#83	GND#84	75.000000	$metal1_conn
Rk400	GND#85	GND#86	75.000000	$metal1_conn
Rk401	XI3/XI1/Q#2	XI3/XI1/Q#11	45.453136	$metal1_conn
Rk402	XI3/XI1/Q#11	XI3/XI1/Q#12	0.376483	$metal1_conn
Rk403	XI3/XI0/XI1/net2#2	XI3/XI0/XI1/net2#15	45.440205
+ $metal1_conn
Rk404	XI3/XI0/XI1/net2#15	XI3/XI0/XI1/net2#16	0.343778
+ $metal1_conn
Rk405	XI3/XI0/XI0/BNOT#4	XI3/XI0/XI0/BNOT#14	45.156464
+ $metal1_conn
Rk406	SOUT3#14	SOUT3#15	31.001158	$metal1_conn
Rk407	VDD#103	VDD#104	15.500000	$metal1_conn
Rk408	GND#87	GND#88	37.500000	$metal1_conn
Rk409	COUT#1	COUT#2	31.001158	$metal1_conn
Rk410	SOUT3#16	SOUT3#17	75.001549	$metal1_conn
Rk411	COUT#3	COUT#4	75.001549	$metal1_conn
Rk412	SOUT3#18	SOUT3#19	1.205139	$metal1_conn
Rk413	SOUT3#20	SOUT3#5	46.880508	$metal1_conn
Rk414	SOUT3#22	SOUT3#10	0.248977	$metal1_conn
Rk415	SOUT3#10	SOUT3#24	0.776813	$metal1_conn
Rk416	COUT#5	COUT#6	0.885980	$metal1_conn
Rk417	VDD#105	VDD#107	0.045855	$metal1_conn
Rk418	VDD#107	VDD#108	0.256720	$metal1_conn
Rk419	VDD#108	VDD#109	0.194163	$metal1_conn
Rk420	VDD#109	VDD#110	0.085599	$metal1_conn
Rk421	VDD#110	VDD#111	0.390413	$metal1_conn
Rk422	VDD#111	VDD#112	0.275586	$metal1_conn
Rk423	VDD#112	VDD#114	0.045855	$metal1_conn
Rk424	VDD#114	VDD#115	0.256720	$metal1_conn
Rk425	VDD#115	VDD#116	0.194163	$metal1_conn
Rk426	VDD#116	VDD#117	0.085599	$metal1_conn
Rk427	VDD#117	VDD#118	0.390413	$metal1_conn
Rk428	VDD#118	VDD#119	0.275586	$metal1_conn
Rk429	VDD#119	VDD#121	0.045855	$metal1_conn
Rk430	VDD#121	VDD#122	0.256720	$metal1_conn
Rk431	VDD#122	VDD#123	0.194163	$metal1_conn
Rk432	VDD#123	VDD#124	0.085599	$metal1_conn
Rk433	VDD#124	VDD#125	0.390413	$metal1_conn
Rk434	VDD#125	VDD#126	0.275586	$metal1_conn
Rk435	VDD#126	VDD#128	0.045855	$metal1_conn
Rk436	VDD#128	VDD#129	0.256720	$metal1_conn
Rk437	VDD#129	VDD#130	0.194163	$metal1_conn
Rk438	VDD#130	VDD#131	0.085599	$metal1_conn
Rk439	VDD#131	VDD	0.315253	$metal1_conn
Rk440	VDD	VDD#132	0.075160	$metal1_conn
Rk441	VDD#106	VDD#107	18.750000	$metal1_conn
Rk442	VDD#113	VDD#114	18.750000	$metal1_conn
Rk443	VDD#120	VDD#121	18.750000	$metal1_conn
Rk444	VDD#127	VDD#128	18.750000	$metal1_conn
Rk445	VDD#133	VDD#135	0.047483	$metal1_conn
Rk446	VDD#135	VDD#136	0.214504	$metal1_conn
Rk447	VDD#136	VDD#137	0.041755	$metal1_conn
Rk448	VDD#137	VDD#138	0.185811	$metal1_conn
Rk449	VDD#138	VDD#139	0.085599	$metal1_conn
Rk450	VDD#139	VDD#140	0.081423	$metal1_conn
Rk451	VDD#140	VDD#141	0.151363	$metal1_conn
Rk452	VDD#141	VDD#142	0.044887	$metal1_conn
Rk453	VDD#142	VDD#143	0.125266	$metal1_conn
Rk454	VDD#143	VDD#144	0.273498	$metal1_conn
Rk455	VDD#144	VDD#146	0.047483	$metal1_conn
Rk456	VDD#146	VDD#147	0.214504	$metal1_conn
Rk457	VDD#147	VDD#148	0.041755	$metal1_conn
Rk458	VDD#148	VDD#149	0.185811	$metal1_conn
Rk459	VDD#149	VDD#150	0.085599	$metal1_conn
Rk460	VDD#150	VDD#151	0.081423	$metal1_conn
Rk461	VDD#151	VDD#152	0.151363	$metal1_conn
Rk462	VDD#152	VDD#153	0.044887	$metal1_conn
Rk463	VDD#153	VDD#154	0.125266	$metal1_conn
Rk464	VDD#154	VDD#155	0.273498	$metal1_conn
Rk465	VDD#155	VDD#157	0.047483	$metal1_conn
Rk466	VDD#157	VDD#158	0.214504	$metal1_conn
Rk467	VDD#158	VDD#159	0.041755	$metal1_conn
Rk468	VDD#159	VDD#160	0.185811	$metal1_conn
Rk469	VDD#160	VDD#161	0.085599	$metal1_conn
Rk470	VDD#161	VDD#162	0.081423	$metal1_conn
Rk471	VDD#162	VDD#163	0.151363	$metal1_conn
Rk472	VDD#163	VDD#164	0.044887	$metal1_conn
Rk473	VDD#164	VDD#165	0.125266	$metal1_conn
Rk474	VDD#165	VDD#166	0.273498	$metal1_conn
Rk475	VDD#166	VDD#168	0.047483	$metal1_conn
Rk476	VDD#168	VDD#169	0.214504	$metal1_conn
Rk477	VDD#169	VDD#170	0.041755	$metal1_conn
Rk478	VDD#170	VDD#171	0.185811	$metal1_conn
Rk479	VDD#171	VDD#172	0.085599	$metal1_conn
Rk480	VDD#172	VDD#173	0.081423	$metal1_conn
Rk481	VDD#173	VDD#174	0.151363	$metal1_conn
Rk482	VDD#174	VDD#175	0.044887	$metal1_conn
Rk483	VDD#175	VDD#176	0.625266	$metal1_conn
Rk484	VDD#134	VDD#135	18.750000	$metal1_conn
Rk485	VDD#145	VDD#146	18.750000	$metal1_conn
Rk486	VDD#156	VDD#157	18.750000	$metal1_conn
Rk487	VDD#167	VDD#168	18.750000	$metal1_conn
Rk488	GND#89	GND#91	0.156403	$metal1_conn
Rk489	GND#91	GND#92	0.045855	$metal1_conn
Rk490	GND#92	GND#93	0.167022	$metal1_conn
Rk491	GND#93	GND#94	0.313165	$metal1_conn
Rk492	GND#94	GND#95	0.277673	$metal1_conn
Rk493	GND#95	GND#96	0.129442	$metal1_conn
Rk494	GND#96	GND#98	0.315178	$metal1_conn
Rk495	GND#98	GND#99	0.045855	$metal1_conn
Rk496	GND#99	GND#100	0.167022	$metal1_conn
Rk497	GND#100	GND#101	0.313165	$metal1_conn
Rk498	GND#101	GND#102	0.277673	$metal1_conn
Rk499	GND#102	GND#103	0.129442	$metal1_conn
Rk500	GND#103	GND#105	0.315178	$metal1_conn
Rk501	GND#105	GND#106	0.045855	$metal1_conn
Rk502	GND#106	GND#107	0.167022	$metal1_conn
Rk503	GND#107	GND#108	0.313165	$metal1_conn
Rk504	GND#108	GND#109	0.277673	$metal1_conn
Rk505	GND#109	GND#110	0.129442	$metal1_conn
Rk506	GND#110	GND#112	0.315178	$metal1_conn
Rk507	GND#112	GND#113	0.045855	$metal1_conn
Rk508	GND#113	GND#114	0.167022	$metal1_conn
Rk509	GND#114	GND#115	0.313165	$metal1_conn
Rk510	GND#115	GND	0.200426	$metal1_conn
Rk511	GND	GND#116	0.077247	$metal1_conn
Rk512	GND#116	GND#117	0.129442	$metal1_conn
Rk513	GND#90	GND#91	15.500000	$metal1_conn
Rk514	GND#97	GND#98	15.500000	$metal1_conn
Rk515	GND#104	GND#105	15.500000	$metal1_conn
Rk516	GND#111	GND#112	15.500000	$metal1_conn
Rk517	COUT	COUT#7	0.367277	$metal1_conn
Rk518	PHI#25	PHI#26	1.759981	$metal1_conn
Rk519	PHI#26	PHI#27	1.695851	$metal1_conn
Rk520	PHI#27	PHI#28	2.331041	$metal1_conn
Rk521	PHI#28	PHI#29	1.695851	$metal1_conn
Rk522	PHI#29	PHI#30	2.331041	$metal1_conn
Rk523	PHI#30	PHI#31	1.695851	$metal1_conn
Rk524	PHI#31	PHI#32	2.331041	$metal1_conn
Rk525	PHI#32	PHI#33	1.695851	$metal1_conn
Rk526	PHI#33	PHI	0.279811	$metal1_conn
Rk527	RST#13	RST#14	3.362283	$metal1_conn
Rk528	RST#14	RST#15	3.932626	$metal1_conn
Rk529	RST#15	RST#16	3.932626	$metal1_conn
Rk530	RST#16	RST#17	3.932626	$metal1_conn
Rk531	RST#17	RST	0.214442	$metal1_conn
Rk532	GND#118	GND#119	15.548018	$metal1_conn
Rk533	GND#119	GND#120	0.210865	$metal1_conn
Rk534	GND#120	GND#121	0.194163	$metal1_conn
Rk535	GND#121	GND#122	0.085599	$metal1_conn
Rk536	GND#122	GND#123	0.070984	$metal1_conn
Rk537	GND#123	GND#124	0.151363	$metal1_conn
Rk538	GND#124	GND#125	0.168065	$metal1_conn
Rk539	GND#125	GND#127	0.323604	$metal1_conn
Rk540	GND#127	GND#128	0.048019	$metal1_conn
Rk541	GND#128	GND#129	0.210865	$metal1_conn
Rk542	GND#129	GND#130	0.194163	$metal1_conn
Rk543	GND#130	GND#131	0.085599	$metal1_conn
Rk544	GND#131	GND#132	0.070984	$metal1_conn
Rk545	GND#132	GND#133	0.151363	$metal1_conn
Rk546	GND#133	GND#134	0.168065	$metal1_conn
Rk547	GND#134	GND#136	0.323604	$metal1_conn
Rk548	GND#136	GND#137	0.048019	$metal1_conn
Rk549	GND#137	GND#138	0.210865	$metal1_conn
Rk550	GND#138	GND#139	0.194163	$metal1_conn
Rk551	GND#139	GND#140	0.085599	$metal1_conn
Rk552	GND#140	GND#141	0.070984	$metal1_conn
Rk553	GND#141	GND#142	0.151363	$metal1_conn
Rk554	GND#142	GND#143	0.168065	$metal1_conn
Rk555	GND#143	GND#145	0.323604	$metal1_conn
Rk556	GND#145	GND#146	0.048019	$metal1_conn
Rk557	GND#146	GND#147	0.210865	$metal1_conn
Rk558	GND#147	GND#148	0.194163	$metal1_conn
Rk559	GND#148	GND#149	0.085599	$metal1_conn
Rk560	GND#149	GND#150	0.070984	$metal1_conn
Rk561	GND#150	GND#151	0.151363	$metal1_conn
Rk562	GND#151	GND#152	0.168065	$metal1_conn
Rk563	GND#126	GND#127	15.500000	$metal1_conn
Rk564	GND#135	GND#136	15.500000	$metal1_conn
Rk565	GND#144	GND#145	15.500000	$metal1_conn
Rk596	net7#2	net7#20	45.000000	$metal1_conn
Rk614	net14#2	net14#20	45.000000	$metal1_conn
Rk632	net21#2	net21#20	45.000000	$metal1_conn
Rk638	PHI#23	PHI#26	45.000000	$metal1_conn
Rk639	PHI#20	PHI#27	45.000000	$metal1_conn
Rk640	PHI#17	PHI#28	45.000000	$metal1_conn
Rk641	PHI#14	PHI#29	45.000000	$metal1_conn
Rk642	PHI#11	PHI#30	45.000000	$metal1_conn
Rk643	PHI#8	PHI#31	45.000000	$metal1_conn
Rk644	PHI#5	PHI#32	45.000000	$metal1_conn
Rk645	PHI#2	PHI#33	45.000000	$metal1_conn
Rk646	RST#11	RST#14	45.000000	$metal1_conn
Rk647	RST#8	RST#15	45.000000	$metal1_conn
Rk648	RST#5	RST#16	45.000000	$metal1_conn
Rk649	RST#2	RST#17	45.000000	$metal1_conn
Rk577	CIN#2	CIN#12	45.000000	$metal1_conn
Rj1	GND#2	GND#117	1.222901	$metal2_conn
Rj2	XI0/XI1/D#6	XI0/XI1/D#16	1.047497	$metal2_conn
Rj3	VDD#132	VDD#4	0.992284	$metal2_conn
Rj4	GND#4	GND#152	1.208364	$metal2_conn
Rj5	VDD#2	VDD#176	0.479930	$metal2_conn
Rj6	VDD#176	VDD#5	0.463390	$metal2_conn
Rj7	XI0/XI0/XI0/ANOT#4	XI0/XI0/XI0/ANOT#9	0.904167
+ $metal2_conn
Rj8	XI0/XI0/XI0/ANOT#9	XI0/XI0/XI0/ANOT#6	0.844043
+ $metal2_conn
Rj9	XI0/XI1/XI4/PHINOT#4	XI0/XI1/XI4/PHINOT#9	0.676420
+ $metal2_conn
Rj10	XI0/XI1/XI4/PHINOT#9	XI0/XI1/XI4/PHINOT#6	1.071790
+ $metal2_conn
Rj11	XI0/XI1/D#15	XI0/XI1/D#10	1.725450	$metal2_conn
Rj12	VDD#175	VDD#8	0.982593	$metal2_conn
Rj13	GND#6	GND#116	1.222901	$metal2_conn
Rj14	XI0/XI0/XI0/BNOT#5	XI0/XI0/XI0/BNOT#10	0.812099
+ $metal2_conn
Rj15	XI0/XI0/XI0/BNOT#10	XI0/XI0/XI0/BNOT#7	0.936111
+ $metal2_conn
Rj16	GND#151	GND#8	0.968056	$metal2_conn
Rj17	VDD#10	VDD#174	0.969733	$metal2_conn
Rj18	XI0/XI1/D#19	XI0/XI1/D#14	1.901297	$metal2_conn
Rj19	CIN#11	CIN#13	2.327717	$metal2_conn
Rj20	GND#150	GND#10	0.968056	$metal2_conn
Rj21	VDD#12	VDD#173	0.969733	$metal2_conn
Rj22	XI0/XI1/Q#5	XI0/XI1/Q#7	0.828519	$metal2_conn
Rj23	XI0/XI1/XI4/net24#13	XI0/XI1/XI4/net24#9	0.691678
+ $metal2_conn
Rj24	XI0/XI1/XI4/net24#9	XI0/XI1/XI4/net24#6	0.509517
+ $metal2_conn
Rj25	VDD#131	VDD#14	0.901204	$metal2_conn
Rj26	GND#12	GND#149	0.968056	$metal2_conn
Rj27	VDD#172	VDD#16	0.906050	$metal2_conn
Rj28	GND#14	GND#115	0.972901	$metal2_conn
Rj29	XI0/XI1/Q#6	XI0/XI1/Q#12	1.452264	$metal2_conn
Rj30	XI0/XI0/XI1/net2#16	XI0/XI0/XI1/net2#5	1.013344
+ $metal2_conn
Rj31	XI0/XI1/D#20	XI0/XI1/D#17	1.635054	$metal2_conn
Rj32	SOUT0#11	SOUT0#24	1.576636	$metal2_conn
Rj33	VDD#130	VDD#18	0.901204	$metal2_conn
Rj34	GND#16	GND#148	0.968056	$metal2_conn
Rj35	VDD#20	VDD#171	0.969733	$metal2_conn
Rj36	XI0/XI1/XI4/net24#11	XI0/XI1/XI4/net24#12	1.124105
+ $metal2_conn
Rj37	XI0/XI1/Q#11	XI0/XI1/Q#9	1.098889	$metal2_conn
Rj38	XI0/XI0/XI1/net2#13	XI0/XI0/XI1/net2#15	1.755926
+ $metal2_conn
Rj39	XI0/net1#4	XI0/net1#23	1.154167	$metal2_conn
Rj40	XI0/net1#23	XI0/net1#16	1.449754	$metal2_conn
Rj41	XI0/XI0/XI0/BNOT#14	XI0/XI0/XI0/BNOT#9	0.800432
+ $metal2_conn
Rj42	XI0/XI0/XI0/BNOT#9	XI0/XI0/XI0/BNOT#11	0.679290
+ $metal2_conn
Rj43	VDD#129	VDD#22	0.992284	$metal2_conn
Rj44	GND#20	GND#170	0.725399	$metal2_conn
Rj45	GND#170	GND#18	0.703519	$metal2_conn
Rj46	VDD#24	VDD#170	0.988246	$metal2_conn
Rj47	SOUT0#14	SOUT0#19	1.112531	$metal2_conn
Rj48	SOUT0#19	SOUT0#16	0.635679	$metal2_conn
Rj49	VDD#169	VDD#26	0.906857	$metal2_conn
Rj50	GND#22	GND#114	0.972901	$metal2_conn
Rj51	net7#12	net7#15	0.756821	$metal2_conn
Rj52	net7#15	net7#10	0.991389	$metal2_conn
Rj53	SOUT0	SOUT0#18	1.201729	$metal2_conn
Rj54	SOUT0#18	SOUT0#20	0.919002	$metal2_conn
Rj55	SOUT0#20	SOUT0#22	2.494246	$metal2_conn
Rj56	net7#14	net7#21	2.719596	$metal2_conn
Rj57	GND#146	GND#113	3.873489	$metal2_conn
Rj58	VDD#126	VDD#166	3.912255	$metal2_conn
Rj59	GND#24	GND#110	1.222901	$metal2_conn
Rj60	XI1/XI1/D#6	XI1/XI1/D#16	1.047497	$metal2_conn
Rj61	VDD#125	VDD#30	0.992284	$metal2_conn
Rj62	GND#26	GND#143	1.208364	$metal2_conn
Rj63	VDD#28	VDD#207	0.479930	$metal2_conn
Rj64	VDD#207	VDD#31	0.463390	$metal2_conn
Rj65	XI1/XI0/XI0/ANOT#4	XI1/XI0/XI0/ANOT#9	0.904167
+ $metal2_conn
Rj66	XI1/XI0/XI0/ANOT#9	XI1/XI0/XI0/ANOT#6	0.844043
+ $metal2_conn
Rj67	XI1/XI1/XI4/PHINOT#4	XI1/XI1/XI4/PHINOT#9	0.676420
+ $metal2_conn
Rj68	XI1/XI1/XI4/PHINOT#9	XI1/XI1/XI4/PHINOT#6	1.071790
+ $metal2_conn
Rj69	XI1/XI1/D#15	XI1/XI1/D#10	1.725450	$metal2_conn
Rj70	VDD#164	VDD#34	0.982593	$metal2_conn
Rj71	GND#28	GND#109	1.222901	$metal2_conn
Rj72	XI1/XI0/XI0/BNOT#5	XI1/XI0/XI0/BNOT#10	0.812099
+ $metal2_conn
Rj73	XI1/XI0/XI0/BNOT#10	XI1/XI0/XI0/BNOT#7	0.936111
+ $metal2_conn
Rj74	GND#142	GND#30	0.968056	$metal2_conn
Rj75	VDD#36	VDD#163	0.969733	$metal2_conn
Rj76	XI1/XI1/D#19	XI1/XI1/D#14	1.901297	$metal2_conn
Rj77	net7#17	net7#19	2.327717	$metal2_conn
Rj78	GND#141	GND#32	0.968056	$metal2_conn
Rj79	VDD#38	VDD#162	0.969733	$metal2_conn
Rj80	XI1/XI1/Q#5	XI1/XI1/Q#7	0.828519	$metal2_conn
Rj81	XI1/XI1/XI4/net24#13	XI1/XI1/XI4/net24#9	0.691678
+ $metal2_conn
Rj82	XI1/XI1/XI4/net24#9	XI1/XI1/XI4/net24#6	0.509517
+ $metal2_conn
Rj83	VDD#124	VDD#40	0.901204	$metal2_conn
Rj84	GND#34	GND#140	0.968056	$metal2_conn
Rj85	VDD#161	VDD#42	0.906050	$metal2_conn
Rj86	GND#36	GND#108	0.972901	$metal2_conn
Rj87	XI1/XI1/Q#6	XI1/XI1/Q#12	1.452264	$metal2_conn
Rj88	XI1/XI0/XI1/net2#16	XI1/XI0/XI1/net2#5	1.013344
+ $metal2_conn
Rj89	XI1/XI1/D#20	XI1/XI1/D#17	1.635054	$metal2_conn
Rj90	SOUT1#11	SOUT1#24	1.576636	$metal2_conn
Rj91	VDD#123	VDD#44	0.901204	$metal2_conn
Rj92	GND#38	GND#139	0.968056	$metal2_conn
Rj93	VDD#46	VDD#160	0.969733	$metal2_conn
Rj94	XI1/XI1/XI4/net24#11	XI1/XI1/XI4/net24#12	1.124105
+ $metal2_conn
Rj95	XI1/XI1/Q#11	XI1/XI1/Q#9	1.098889	$metal2_conn
Rj96	XI1/XI0/XI1/net2#13	XI1/XI0/XI1/net2#15	1.755926
+ $metal2_conn
Rj97	XI1/net1#4	XI1/net1#23	1.154167	$metal2_conn
Rj98	XI1/net1#23	XI1/net1#16	1.449754	$metal2_conn
Rj99	XI1/XI0/XI0/BNOT#14	XI1/XI0/XI0/BNOT#9	0.800432
+ $metal2_conn
Rj100	XI1/XI0/XI0/BNOT#9	XI1/XI0/XI0/BNOT#11	0.679290
+ $metal2_conn
Rj101	VDD#122	VDD#48	0.992284	$metal2_conn
Rj102	GND#42	GND#193	0.725399	$metal2_conn
Rj103	GND#193	GND#40	0.703519	$metal2_conn
Rj104	VDD#50	VDD#159	0.988246	$metal2_conn
Rj105	SOUT1#14	SOUT1#19	1.112531	$metal2_conn
Rj106	SOUT1#19	SOUT1#16	0.635679	$metal2_conn
Rj107	VDD#158	VDD#52	0.906857	$metal2_conn
Rj108	GND#44	GND#107	0.972901	$metal2_conn
Rj109	net14#12	net14#15	0.756821	$metal2_conn
Rj110	net14#15	net14#10	0.991389	$metal2_conn
Rj111	SOUT1	SOUT1#18	1.201729	$metal2_conn
Rj112	SOUT1#18	SOUT1#20	0.919002	$metal2_conn
Rj113	SOUT1#20	SOUT1#22	2.494246	$metal2_conn
Rj114	net14#14	net14#21	2.719596	$metal2_conn
Rj115	GND#137	GND#106	3.873489	$metal2_conn
Rj116	VDD#119	VDD#155	3.912255	$metal2_conn
Rj117	GND#46	GND#103	1.222901	$metal2_conn
Rj118	XI2/XI1/D#6	XI2/XI1/D#16	1.047497	$metal2_conn
Rj119	VDD#118	VDD#56	0.992284	$metal2_conn
Rj120	GND#48	GND#134	1.208364	$metal2_conn
Rj121	VDD#54	VDD#234	0.479930	$metal2_conn
Rj122	VDD#234	VDD#57	0.463390	$metal2_conn
Rj123	XI2/XI0/XI0/ANOT#4	XI2/XI0/XI0/ANOT#9	0.904167
+ $metal2_conn
Rj124	XI2/XI0/XI0/ANOT#9	XI2/XI0/XI0/ANOT#6	0.844043
+ $metal2_conn
Rj125	XI2/XI1/XI4/PHINOT#4	XI2/XI1/XI4/PHINOT#9	0.676420
+ $metal2_conn
Rj126	XI2/XI1/XI4/PHINOT#9	XI2/XI1/XI4/PHINOT#6	1.071790
+ $metal2_conn
Rj127	XI2/XI1/D#15	XI2/XI1/D#10	1.725450	$metal2_conn
Rj128	VDD#153	VDD#60	0.982593	$metal2_conn
Rj129	GND#50	GND#102	1.222901	$metal2_conn
Rj130	XI2/XI0/XI0/BNOT#5	XI2/XI0/XI0/BNOT#10	0.812099
+ $metal2_conn
Rj131	XI2/XI0/XI0/BNOT#10	XI2/XI0/XI0/BNOT#7	0.936111
+ $metal2_conn
Rj132	GND#133	GND#52	0.968056	$metal2_conn
Rj133	VDD#62	VDD#152	0.969733	$metal2_conn
Rj134	XI2/XI1/D#19	XI2/XI1/D#14	1.901297	$metal2_conn
Rj135	net14#17	net14#19	2.327717	$metal2_conn
Rj136	GND#132	GND#54	0.968056	$metal2_conn
Rj137	VDD#64	VDD#151	0.969733	$metal2_conn
Rj138	XI2/XI1/Q#5	XI2/XI1/Q#7	0.828519	$metal2_conn
Rj139	XI2/XI1/XI4/net24#13	XI2/XI1/XI4/net24#9	0.691678
+ $metal2_conn
Rj140	XI2/XI1/XI4/net24#9	XI2/XI1/XI4/net24#6	0.509517
+ $metal2_conn
Rj141	VDD#117	VDD#66	0.901204	$metal2_conn
Rj142	GND#56	GND#131	0.968056	$metal2_conn
Rj143	VDD#150	VDD#68	0.906050	$metal2_conn
Rj144	GND#58	GND#101	0.972901	$metal2_conn
Rj145	XI2/XI1/Q#6	XI2/XI1/Q#12	1.452264	$metal2_conn
Rj146	XI2/XI0/XI1/net2#16	XI2/XI0/XI1/net2#5	1.013344
+ $metal2_conn
Rj147	XI2/XI1/D#20	XI2/XI1/D#17	1.635054	$metal2_conn
Rj148	SOUT2#11	SOUT2#24	1.576636	$metal2_conn
Rj149	VDD#116	VDD#70	0.901204	$metal2_conn
Rj150	GND#60	GND#130	0.968056	$metal2_conn
Rj151	VDD#72	VDD#149	0.969733	$metal2_conn
Rj152	XI2/XI1/XI4/net24#11	XI2/XI1/XI4/net24#12	1.124105
+ $metal2_conn
Rj153	XI2/XI1/Q#11	XI2/XI1/Q#9	1.098889	$metal2_conn
Rj154	XI2/XI0/XI1/net2#13	XI2/XI0/XI1/net2#15	1.755926
+ $metal2_conn
Rj155	XI2/net1#4	XI2/net1#23	1.154167	$metal2_conn
Rj156	XI2/net1#23	XI2/net1#16	1.449754	$metal2_conn
Rj157	XI2/XI0/XI0/BNOT#14	XI2/XI0/XI0/BNOT#9	0.800432
+ $metal2_conn
Rj158	XI2/XI0/XI0/BNOT#9	XI2/XI0/XI0/BNOT#11	0.679290
+ $metal2_conn
Rj159	VDD#115	VDD#74	0.992284	$metal2_conn
Rj160	GND#64	GND#216	0.725399	$metal2_conn
Rj161	GND#216	GND#62	0.703519	$metal2_conn
Rj162	VDD#76	VDD#148	0.988246	$metal2_conn
Rj163	SOUT2#14	SOUT2#19	1.112531	$metal2_conn
Rj164	SOUT2#19	SOUT2#16	0.635679	$metal2_conn
Rj165	VDD#147	VDD#78	0.906857	$metal2_conn
Rj166	GND#66	GND#100	0.972901	$metal2_conn
Rj167	net21#12	net21#15	0.756821	$metal2_conn
Rj168	net21#15	net21#10	0.991389	$metal2_conn
Rj169	SOUT2	SOUT2#18	1.201729	$metal2_conn
Rj170	SOUT2#18	SOUT2#20	0.919002	$metal2_conn
Rj171	SOUT2#20	SOUT2#22	2.494246	$metal2_conn
Rj172	net21#14	net21#21	2.719596	$metal2_conn
Rj173	GND#128	GND#99	3.873489	$metal2_conn
Rj174	VDD#112	VDD#144	3.912255	$metal2_conn
Rj175	GND#68	GND#96	1.222901	$metal2_conn
Rj176	XI3/XI1/D#6	XI3/XI1/D#16	1.047497	$metal2_conn
Rj177	VDD#111	VDD#82	0.992284	$metal2_conn
Rj178	GND#70	GND#125	1.208364	$metal2_conn
Rj179	VDD#80	VDD#261	0.479930	$metal2_conn
Rj180	VDD#261	VDD#83	0.463390	$metal2_conn
Rj181	XI3/XI0/XI0/ANOT#4	XI3/XI0/XI0/ANOT#9	0.904167
+ $metal2_conn
Rj182	XI3/XI0/XI0/ANOT#9	XI3/XI0/XI0/ANOT#6	0.844043
+ $metal2_conn
Rj183	XI3/XI1/XI4/PHINOT#4	XI3/XI1/XI4/PHINOT#9	0.676420
+ $metal2_conn
Rj184	XI3/XI1/XI4/PHINOT#9	XI3/XI1/XI4/PHINOT#6	1.071790
+ $metal2_conn
Rj185	XI3/XI1/D#15	XI3/XI1/D#10	1.725450	$metal2_conn
Rj186	VDD#142	VDD#86	0.982593	$metal2_conn
Rj187	GND#72	GND#95	1.222901	$metal2_conn
Rj188	XI3/XI0/XI0/BNOT#5	XI3/XI0/XI0/BNOT#10	0.812099
+ $metal2_conn
Rj189	XI3/XI0/XI0/BNOT#10	XI3/XI0/XI0/BNOT#7	0.936111
+ $metal2_conn
Rj190	GND#124	GND#74	0.968056	$metal2_conn
Rj191	VDD#88	VDD#141	0.969733	$metal2_conn
Rj192	XI3/XI1/D#19	XI3/XI1/D#14	1.901297	$metal2_conn
Rj193	net21#17	net21#19	2.327717	$metal2_conn
Rj194	GND#123	GND#76	0.968056	$metal2_conn
Rj195	VDD#90	VDD#140	0.969733	$metal2_conn
Rj196	XI3/XI1/Q#5	XI3/XI1/Q#7	0.828519	$metal2_conn
Rj197	XI3/XI1/XI4/net24#13	XI3/XI1/XI4/net24#9	0.691678
+ $metal2_conn
Rj198	XI3/XI1/XI4/net24#9	XI3/XI1/XI4/net24#6	0.509517
+ $metal2_conn
Rj199	VDD#110	VDD#92	0.901204	$metal2_conn
Rj200	GND#78	GND#122	0.968056	$metal2_conn
Rj201	VDD#139	VDD#94	0.906050	$metal2_conn
Rj202	GND#80	GND#94	0.972901	$metal2_conn
Rj203	XI3/XI1/Q#6	XI3/XI1/Q#12	1.452264	$metal2_conn
Rj204	XI3/XI0/XI1/net2#16	XI3/XI0/XI1/net2#5	1.013344
+ $metal2_conn
Rj205	XI3/XI1/D#20	XI3/XI1/D#17	1.635054	$metal2_conn
Rj206	SOUT3#11	SOUT3#24	1.576636	$metal2_conn
Rj207	VDD#109	VDD#96	0.901204	$metal2_conn
Rj208	GND#82	GND#121	0.968056	$metal2_conn
Rj209	VDD#98	VDD#138	0.969733	$metal2_conn
Rj210	XI3/XI1/XI4/net24#11	XI3/XI1/XI4/net24#12	1.124105
+ $metal2_conn
Rj211	XI3/XI1/Q#11	XI3/XI1/Q#9	1.098889	$metal2_conn
Rj212	XI3/XI0/XI1/net2#13	XI3/XI0/XI1/net2#15	1.755926
+ $metal2_conn
Rj213	XI3/net1#4	XI3/net1#23	1.154167	$metal2_conn
Rj214	XI3/net1#23	XI3/net1#16	1.449754	$metal2_conn
Rj215	XI3/XI0/XI0/BNOT#14	XI3/XI0/XI0/BNOT#9	0.800432
+ $metal2_conn
Rj216	XI3/XI0/XI0/BNOT#9	XI3/XI0/XI0/BNOT#11	0.679290
+ $metal2_conn
Rj217	VDD#108	VDD#100	0.992284	$metal2_conn
Rj218	GND#86	GND#239	0.725399	$metal2_conn
Rj219	GND#239	GND#84	0.703519	$metal2_conn
Rj220	VDD#102	VDD#137	0.988246	$metal2_conn
Rj221	SOUT3#14	SOUT3#19	1.112531	$metal2_conn
Rj222	SOUT3#19	SOUT3#16	0.635679	$metal2_conn
Rj223	VDD#136	VDD#104	0.906857	$metal2_conn
Rj224	GND#88	GND#93	0.972901	$metal2_conn
Rj225	COUT#3	COUT#6	0.756821	$metal2_conn
Rj226	COUT#6	COUT#1	0.991389	$metal2_conn
Rj227	SOUT3	SOUT3#18	1.201729	$metal2_conn
Rj228	SOUT3#18	SOUT3#20	0.919002	$metal2_conn
Rj229	SOUT3#20	SOUT3#22	2.494246	$metal2_conn
Rj230	COUT#5	COUT#7	2.719596	$metal2_conn
Rj231	GND#119	GND#92	3.873489	$metal2_conn
Rj232	VDD#105	VDD#133	3.912255	$metal2_conn
Rj315	XI0/net1#9	XI0/net1#23	0.500000	$metal2_conn
Rj587	VDD#143	VDD#261	0.500000	$metal2_conn
Rj325	GND#147	GND#170	0.500000	$metal2_conn
Rj472	VDD#154	VDD#234	0.500000	$metal2_conn
Rj357	VDD#165	VDD#207	0.500000	$metal2_conn
Rj660	XI3/net1#9	XI3/net1#23	0.500000	$metal2_conn
Rj670	GND#120	GND#239	0.500000	$metal2_conn
Rj545	XI2/net1#9	XI2/net1#23	0.500000	$metal2_conn
Rj555	GND#129	GND#216	0.500000	$metal2_conn
Rj430	XI1/net1#9	XI1/net1#23	0.500000	$metal2_conn
Rj440	GND#138	GND#193	0.500000	$metal2_conn
*
*       CAPACITOR CARDS
*
*
C1	SOUT2#18	PHI#17	1.77809e-17
C2	GND#120	SOUT3#16	1.37047e-17
C3	XI3/XI1/Q#5	XI3/XI1/Q#4	9.30041e-18
C4	XI3/XI1/XI4/PHINOT#6	XI3/XI1/XI4/PHINOT#7	4.46757e-18
C5	GND#14	XI0/XI0/XI0/ANOT#3	2.55369e-18
C6	VDD#150	XI2/XI0/XI0/ANOT	1.82797e-18
C7	net21#19	SOUT3#8	2.94542e-17
C8	GND#147	SOUT0#16	1.37047e-17
C9	XI0/XI1/XI4/net24#13	XI0/XI1/Q#7	3.21387e-18
C10	GND#28	SOUT1#3	4.36955e-18
C11	VDD#124	XI1/XI1/XI4/net24	4.3074e-18
C12	XI0/XI1/Q#5	XI0/XI1/XI4/PHINOT	8.79316e-18
C13	GND#107	net7#9	4.17672e-18
C14	XI1/XI1/XI4/net24	XI1/XI1/D#3	2.28624e-18
C15	XI0/XI1/D#20	XI0/XI1/XI4/net24#11	1.30924e-17
C16	XI3/XI1/Q#6	VDD#109	1.9494e-18
C17	RST#13	GND#118	1.50587e-17
C18	PHI#12	XI1/XI1/Q#3	3.05252e-18
C19	GND#128	VDD#145	1.10177e-17
C20	SOUT1#16	SOUT1#18	1.30402e-17
C21	VDD#16	XI0/net1#9	2.69821e-18
C22	VDD#175	VDD	1.8633e-17
C23	VDD#164	VDD#163	1.68962e-17
C24	VDD#110	VDD	8.4118e-17
C25	XI3/XI0/XI0/BNOT#11	net21#9	3.59305e-18
C26	net14#21	VDD#158	6.72863e-18
C27	SOUT3#18	XI3/XI1/Q#3	1.55626e-18
C28	XI0/XI1/XI4/net24#9	XI0/XI1/XI4/PHINOT#2	1.74823e-18
C29	XI3/XI1/Q#6	XI3/XI1/XI4/PHINOT#2	2.75539e-18
C30	XI0/XI0/XI0/ANOT	CIN#7	1.29274e-18
C31	COUT#6	XI3/XI0/XI1/net2	7.48119e-18
C32	net21#10	XI2/XI0/XI1/net2#2	5.88268e-18
C33	net21#10	XI2/XI0/XI1/net2#3	6.65581e-18
C34	GND#58	XI2/XI0/XI0/BNOT#2	1.48416e-18
C35	GND#113	net7#21	1.0327e-16
C36	SOUT1#8	VDD#42	1.33308e-17
C37	XI0/XI1/Q#11	PHI#5	1.16343e-17
C38	net14#19	XI2/XI0/XI0/ANOT#2	1.52499e-17
C39	SOUT0#18	GND#146	3.44305e-17
C40	GND#151	XI0/net1	4.15538e-18
C41	GND#44	GND#106	8.15798e-18
C42	XI1/net1#16	XI1/XI0/XI0/BNOT#9	1.54391e-17
C43	SOUT0#11	XI0/net1#9	2.44574e-17
C44	XI1/XI1/XI4/net24#13	PHI#11	9.76906e-18
C45	XI0/XI0/XI1/net2#16	XI0/net1#4	3.40431e-17
C46	XI0/XI1/Q#11	XI0/XI1/XI4/net24#12	2.96161e-17
C47	XI1/XI0/XI0/ANOT#2	net7#8	2.9337e-18
C48	GND#88	GND#87	7.74457e-18
C49	VDD#136	COUT#1	1.49363e-17
C50	VDD#139	VDD	1.44935e-17
C51	GND#132	XI2/XI1/XI4/PHINOT#3	3.59673e-18
C52	VDD#26	CIN#7	4.04071e-18
C53	XI0/XI0/XI0/BNOT#5	VDD	8.81368e-18
C54	XI0/net1#2	SOUT0#6	1.96305e-17
C55	XI2/XI1/Q#5	VDD#66	6.36626e-17
C56	XI1/XI1/D#10	net7#17	1.25206e-17
C57	VDD#74	SOUT2	4.09262e-18
C58	XI0/net1#4	VDD#171	1.4412e-17
C59	SOUT3#22	COUT#7	1.19768e-16
C60	XI2/XI1/Q#7	VDD#117	1.95651e-18
C61	PHI#22	XI3/XI1/Q	2.93097e-18
C62	GND#93	SOUT3#22	9.0763e-18
C63	VDD#174	VDD	1.94359e-17
C64	SOUT2	VDD#115	3.80499e-17
C65	GND#129	XI2/XI1/Q#3	2.16945e-18
C66	XI3/XI1/Q#6	VDD	9.99629e-18
[...]
C3365	XI1/XI1/XI4/net25	GND	3.17892e-19
C3366	XI2/XI0/XI0/net4	GND	3.66456e-19
C3367	XI2/XI1/XI4/net9	GND	3.18655e-19
C3368	XI2/XI1/XI4/net25	GND	3.17892e-19
C3369	XI3/XI0/XI0/net4	GND	3.66456e-19
C3370	XI3/XI1/XI4/net9	GND	3.18655e-19
C3371	XI3/XI1/XI4/net25	GND	3.17892e-19
C3372	XI3/XI0/XI1/net2#3	GND	3.13736e-18
C3373	XI3/XI0/XI0/BNOT#3	GND	1.96891e-18
C3374	XI3/XI1/Q	GND	2.6773e-18
C3375	net21#7	GND	4.03466e-18
C3376	PHI#22	GND	1.97867e-18
C3377	XI3/XI1/D#3	GND	2.28632e-20
C3378	net21#6	GND	1.53502e-18
C3379	XI3/XI0/XI0/ANOT	GND	1.42922e-17
C3380	SOUT3#7	GND	6.82093e-19
C3381	XI3/XI1/XI4/net24	GND	4.03648e-18
C3382	XI3/XI1/XI4/PHINOT	GND	4.28642e-19
C3383	SOUT3#6	GND	7.98051e-18
C3384	XI3/net1#3	GND	1.99398e-18
C3385	SOUT3#1	GND	5.3701e-19
C3386	RST#12	GND	2.45689e-17
C3387	net21	GND	2.83442e-18
C3388	XI2/XI0/XI1/net2#3	GND	3.13736e-18
C3389	XI2/XI0/XI0/BNOT#3	GND	1.96891e-18
C3390	XI2/XI1/Q	GND	2.6773e-18
C3391	net14#7	GND	4.03466e-18
C3392	PHI#16	GND	1.97867e-18
C3393	XI2/XI1/D#3	GND	2.28632e-20
C3394	net14#6	GND	1.53502e-18
C3395	XI2/XI0/XI0/ANOT	GND	1.42922e-17
C3396	SOUT2#7	GND	6.82093e-19
C3397	XI2/XI1/XI4/net24	GND	4.03648e-18
C3398	XI2/XI1/XI4/PHINOT	GND	4.28642e-19
C3399	SOUT2#6	GND	7.98051e-18
C3400	XI2/net1#3	GND	1.99398e-18
C3401	SOUT2#1	GND	5.3701e-19
C3402	RST#9	GND	2.45689e-17
C3403	net14	GND	2.83442e-18
C3404	XI1/XI0/XI1/net2#3	GND	3.13736e-18
C3405	XI1/XI0/XI0/BNOT#3	GND	1.96891e-18
C3406	XI1/XI1/Q	GND	2.6773e-18
C3407	net7#7	GND	4.03466e-18
C3408	PHI#10	GND	1.97867e-18
C3409	XI1/XI1/D#3	GND	2.28632e-20
C3410	net7#6	GND	1.53502e-18
C3411	XI1/XI0/XI0/ANOT	GND	1.42922e-17
C3412	SOUT1#7	GND	6.82093e-19
C3413	XI1/XI1/XI4/net24	GND	4.03648e-18
C3414	XI1/XI1/XI4/PHINOT	GND	4.28642e-19
C3415	SOUT1#6	GND	7.98051e-18
C3416	XI1/net1#3	GND	1.99398e-18
C3417	SOUT1#1	GND	5.3701e-19
C3418	RST#6	GND	2.45689e-17
C3419	net7	GND	2.83442e-18
C3420	XI0/XI0/XI1/net2#3	GND	3.13736e-18
C3421	XI0/XI0/XI0/BNOT#3	GND	1.96891e-18
C3422	XI0/XI1/Q	GND	2.6773e-18
C3423	CIN#7	GND	4.03466e-18
C3424	PHI#4	GND	1.97867e-18
C3425	XI0/XI1/D#3	GND	2.28632e-20
C3426	CIN#6	GND	1.05456e-18
C3427	XI0/XI0/XI0/ANOT	GND	1.42922e-17
C3428	SOUT0#7	GND	6.82093e-19
C3429	XI0/XI1/XI4/net24	GND	4.03648e-18
C3430	XI0/XI1/XI4/PHINOT	GND	4.28642e-19
C3431	SOUT0#6	GND	7.98051e-18
C3432	XI0/net1#3	GND	1.99398e-18
C3433	SOUT0#1	GND	5.3701e-19
C3434	RST#3	GND	2.33004e-17
C3435	CIN#1	GND	2.83442e-18
C3436	XI3/XI0/XI1/net2	GND	2.79716e-17
C3437	SOUT3#9	GND	6.61416e-18
C3438	XI3/XI1/Q#3	GND	1.48647e-17
C3439	net21#9	GND	1.32586e-17
C3440	PHI#24	GND	2.01904e-17
C3441	XI3/XI1/XI4/net24#3	GND	9.99763e-18
C3442	net21#4	GND	3.26818e-17
C3443	XI3/XI0/XI0/ANOT#3	GND	1.01721e-17
C3444	XI3/XI0/XI0/BNOT	GND	6.49394e-18
C3445	XI3/XI1/D	GND	6.5331e-18
C3446	XI3/XI1/XI4/PHINOT#3	GND	1.96485e-17
C3447	SOUT3#4	GND	1.86891e-17
C3448	XI3/net1	GND	3.35095e-17
C3449	SOUT3#3	GND	2.75159e-17
C3450	PHI#21	GND	5.87414e-17
C3451	RST#10	GND	1.1724e-17
C3452	net21#3	GND	3.0384e-17
C3453	XI2/XI0/XI1/net2	GND	3.01059e-17
C3454	SOUT2#9	GND	6.61416e-18
C3455	XI2/XI1/Q#3	GND	1.48647e-17
C3456	net14#9	GND	1.32586e-17
C3457	PHI#18	GND	1.88184e-17
C3458	XI2/XI1/XI4/net24#3	GND	9.99763e-18
C3459	net14#4	GND	3.26818e-17
C3460	XI2/XI0/XI0/ANOT#3	GND	1.01721e-17
C3461	XI2/XI0/XI0/BNOT	GND	6.49394e-18
C3462	XI2/XI1/D	GND	6.5331e-18
C3463	XI2/XI1/XI4/PHINOT#3	GND	1.96485e-17
C3464	SOUT2#4	GND	1.86891e-17
C3465	XI2/net1	GND	3.35095e-17
C3466	SOUT2#3	GND	2.75159e-17
C3467	PHI#15	GND	5.87414e-17
C3468	RST#7	GND	1.1724e-17
C3469	net14#3	GND	3.0384e-17
C3470	XI1/XI0/XI1/net2	GND	3.01059e-17
C3471	SOUT1#9	GND	6.61416e-18
C3472	XI1/XI1/Q#3	GND	1.48647e-17
C3473	net7#9	GND	1.32586e-17
C3474	PHI#12	GND	1.88184e-17
C3475	XI1/XI1/XI4/net24#3	GND	9.99763e-18
C3476	net7#4	GND	3.26818e-17
C3477	XI1/XI0/XI0/ANOT#3	GND	1.01721e-17
C3478	XI1/XI0/XI0/BNOT	GND	6.49394e-18
C3479	XI1/XI1/D	GND	6.5331e-18
C3480	XI1/XI1/XI4/PHINOT#3	GND	1.96485e-17
C3481	SOUT1#4	GND	1.86891e-17
C3482	XI1/net1	GND	3.35095e-17
C3483	SOUT1#3	GND	2.75159e-17
C3484	PHI#9	GND	5.87414e-17
C3485	RST#4	GND	1.1724e-17
C3486	net7#3	GND	3.0384e-17
C3487	XI0/XI0/XI1/net2	GND	3.01059e-17
C3488	SOUT0#9	GND	6.61416e-18
C3489	XI0/XI1/Q#3	GND	1.48647e-17
C3490	CIN#9	GND	1.2684e-17
C3491	PHI#6	GND	1.88184e-17
C3492	XI0/XI1/XI4/net24#3	GND	9.99763e-18
C3493	CIN#4	GND	3.26818e-17
C3494	XI0/XI0/XI0/ANOT#3	GND	1.01721e-17
C3495	XI0/XI0/XI0/BNOT	GND	6.49394e-18
C3496	XI0/XI1/D	GND	6.5331e-18
C3497	XI0/XI1/XI4/PHINOT#3	GND	1.96485e-17
C3498	SOUT0#4	GND	1.86891e-17
C3499	XI0/net1	GND	3.35095e-17
C3500	SOUT0#3	GND	2.75159e-17
C3501	PHI#3	GND	5.87414e-17
C3502	RST#1	GND	1.1724e-17
C3503	CIN#3	GND	3.0384e-17
C3504	XI3/XI0/XI0/BNOT#4	GND	1.36471e-17
C3505	SOUT3#10	GND	2.91212e-17
C3506	XI3/XI0/XI1/net2#2	GND	4.81417e-17
C3507	XI3/XI1/Q#2	GND	5.16577e-17
C3508	net21#8	GND	5.85133e-17
C3509	PHI#23	GND	5.15321e-17
C3510	XI3/XI1/D#4	GND	4.17494e-19
C3511	XI3/XI1/XI4/net24#4	GND	1.30667e-17
C3512	net21#5	GND	4.82674e-17
C3513	XI3/XI0/XI0/ANOT#2	GND	7.68838e-17
C3514	SOUT3#8	GND	2.47258e-17
C3515	XI3/XI0/XI0/BNOT#2	GND	2.18423e-17
C3516	XI3/XI1/XI4/net24#2	GND	1.89551e-17
C3517	XI3/XI1/D#2	GND	1.32495e-17
C3518	XI3/XI1/XI4/PHINOT#2	GND	5.17685e-17
C3519	SOUT3#5	GND	7.09963e-17
C3520	XI3/net1#2	GND	2.87717e-17
C3521	SOUT3#2	GND	4.38104e-17
C3522	PHI#20	GND	1.18812e-16
C3523	RST#11	GND	2.11303e-16
C3524	net21#2	GND	1.38027e-16
C3525	XI2/XI0/XI0/BNOT#4	GND	1.36298e-17
C3526	SOUT2#10	GND	2.91212e-17
C3527	XI2/XI0/XI1/net2#2	GND	4.81417e-17
C3528	XI2/XI1/Q#2	GND	5.16577e-17
C3529	net14#8	GND	5.85174e-17
C3530	PHI#17	GND	6.63162e-17
C3531	XI2/XI1/D#4	GND	4.17494e-19
C3532	XI2/XI1/XI4/net24#4	GND	1.30667e-17
C3533	net14#5	GND	4.82674e-17
C3534	XI2/XI0/XI0/ANOT#2	GND	7.68838e-17
C3535	SOUT2#8	GND	2.47258e-17
C3536	XI2/XI0/XI0/BNOT#2	GND	2.18423e-17
C3537	XI2/XI1/XI4/net24#2	GND	1.89551e-17
C3538	XI2/XI1/D#2	GND	1.32495e-17
C3539	XI2/XI1/XI4/PHINOT#2	GND	5.17685e-17
C3540	SOUT2#5	GND	7.03277e-17
C3541	XI2/net1#2	GND	2.87717e-17
C3542	SOUT2#2	GND	4.38104e-17
C3543	PHI#14	GND	1.18812e-16
C3544	RST#8	GND	2.24025e-16
C3545	net14#2	GND	1.38027e-16
C3546	XI1/XI0/XI0/BNOT#4	GND	1.36298e-17
C3547	SOUT1#10	GND	2.91212e-17
C3548	XI1/XI0/XI1/net2#2	GND	4.81417e-17
C3549	XI1/XI1/Q#2	GND	5.16577e-17
C3550	net7#8	GND	5.85174e-17
C3551	PHI#11	GND	6.63162e-17
C3552	XI1/XI1/D#4	GND	4.17494e-19
C3553	XI1/XI1/XI4/net24#4	GND	1.30667e-17
C3554	net7#5	GND	4.82674e-17
C3555	XI1/XI0/XI0/ANOT#2	GND	7.68838e-17
C3556	SOUT1#8	GND	2.47258e-17
C3557	XI1/XI0/XI0/BNOT#2	GND	2.18423e-17
C3558	XI1/XI1/XI4/net24#2	GND	1.89551e-17
C3559	XI1/XI1/D#2	GND	1.32495e-17
C3560	XI1/XI1/XI4/PHINOT#2	GND	5.17685e-17
C3561	SOUT1#5	GND	7.03277e-17
C3562	XI1/net1#2	GND	2.87717e-17
C3563	SOUT1#2	GND	4.38104e-17
C3564	PHI#8	GND	1.18812e-16
C3565	RST#5	GND	2.24025e-16
C3566	net7#2	GND	1.38027e-16
C3567	XI0/XI0/XI0/BNOT#4	GND	1.36298e-17
C3568	SOUT0#10	GND	2.91212e-17
C3569	XI0/XI0/XI1/net2#2	GND	4.81417e-17
C3570	XI0/XI1/Q#2	GND	5.16577e-17
C3571	CIN#8	GND	5.85367e-17
C3572	PHI#5	GND	6.63162e-17
C3573	XI0/XI1/D#4	GND	4.17494e-19
C3574	XI0/XI1/XI4/net24#4	GND	1.30667e-17
C3575	CIN#5	GND	4.82674e-17
C3576	XI0/XI0/XI0/ANOT#2	GND	7.68838e-17
C3577	SOUT0#8	GND	2.47258e-17
C3578	XI0/XI0/XI0/BNOT#2	GND	2.18423e-17
C3579	XI0/XI1/XI4/net24#2	GND	1.89551e-17
C3580	XI0/XI1/D#2	GND	1.32495e-17
C3581	XI0/XI1/XI4/PHINOT#2	GND	5.17685e-17
C3582	SOUT0#5	GND	7.03277e-17
C3583	XI0/net1#2	GND	2.87717e-17
C3584	SOUT0#2	GND	4.38104e-17
C3585	PHI#2	GND	6.66514e-17
C3586	RST#2	GND	1.17958e-16
C3587	CIN#2	GND	8.12975e-17
C3588	VDD#105	GND	6.12471e-17
C3589	VDD#133	GND	5.19488e-17
C3590	COUT#5	GND	2.8667e-17
C3591	COUT#7	GND	4.17009e-17
C3592	SOUT3#18	GND	4.38955e-17
C3593	SOUT3#20	GND	6.34514e-17
C3594	SOUT3#22	GND	3.17463e-17
C3595	COUT#3	GND	8.67498e-18
C3596	COUT#6	GND	1.18863e-17
C3597	COUT#1	GND	1.10923e-17
C3598	SOUT3#14	GND	3.23603e-18
C3599	SOUT3#19	GND	1.94159e-17
C3600	SOUT3#16	GND	8.43156e-18
C3601	VDD#104	GND	3.11409e-18
C3602	VDD#102	GND	2.60645e-19
C3603	VDD#137	GND	2.30328e-19
C3604	VDD#100	GND	2.25295e-18
C3605	XI3/net1#6	GND	3.57652e-19
C3606	XI3/XI0/XI0/BNOT#14	GND	9.80305e-18
C3607	XI3/XI0/XI0/BNOT#9	GND	3.05937e-17
C3608	XI3/XI0/XI0/BNOT#11	GND	1.8348e-17
C3609	XI3/XI0/XI1/net2#13	GND	1.75343e-17
C3610	XI3/XI0/XI1/net2#15	GND	2.92719e-17
C3611	XI3/net1#4	GND	6.20306e-18
C3612	XI3/net1#9	GND	7.68836e-18
C3613	XI3/net1#16	GND	2.01534e-17
C3614	XI3/XI1/XI4/net24#11	GND	2.17241e-18
C3615	XI3/XI1/XI4/net24#12	GND	1.17061e-17
C3616	XI3/XI1/Q#11	GND	2.17936e-17
C3617	XI3/XI1/Q#9	GND	1.09498e-17
C3618	XI3/XI0/XI1/net2#12	GND	8.07284e-18
C3619	VDD#98	GND	3.74949e-19
C3620	VDD#138	GND	3.8563e-19
C3621	VDD#96	GND	1.60408e-18
C3622	SOUT3#11	GND	1.47001e-17
C3623	SOUT3#24	GND	1.94621e-17
C3624	XI3/XI1/D#20	GND	3.08439e-18
C3625	XI3/XI1/D#17	GND	1.03658e-17
C3626	XI3/XI0/XI1/net2#16	GND	6.12784e-18
C3627	XI3/XI1/Q#6	GND	4.30485e-18
C3628	XI3/XI1/Q#12	GND	1.07738e-17
C3629	VDD#139	GND	2.20938e-19
C3630	VDD#94	GND	1.74327e-18
C3631	VDD#110	GND	2.81797e-20
C3632	VDD#92	GND	6.91838e-19
C3633	XI3/XI0/XI1/XI0/net13#4	GND	1.30885e-17
C3634	XI3/XI0/XI1/net2#9	GND	6.73319e-19
C3635	XI3/XI1/Q#5	GND	2.09121e-18
C3636	XI3/XI1/Q#7	GND	2.16707e-19
C3637	XI3/XI1/XI4/net24#13	GND	1.93822e-17
C3638	XI3/XI1/XI4/net24#6	GND	7.33241e-18
C3639	XI3/XI1/XI4/net24#9	GND	1.65682e-17
C3640	VDD#90	GND	1.17069e-18
C3641	XI3/XI1/D#19	GND	3.36909e-17
C3642	XI3/XI1/D#14	GND	2.50795e-17
C3643	net21#17	GND	2.67287e-17
C3644	net21#19	GND	4.2371e-17
C3645	VDD#88	GND	4.14886e-19
C3646	XI3/XI0/XI0/BNOT#5	GND	1.84278e-19
C3647	XI3/XI0/XI0/BNOT#10	GND	3.17641e-17
C3648	XI3/XI0/XI0/BNOT#7	GND	2.10842e-17
C3649	XI3/XI1/D#7	GND	8.64157e-19
C3650	XI3/XI1/XI5/net13#3	GND	1.06358e-17
C3651	VDD#142	GND	1.23331e-18
C3652	VDD#86	GND	2.68286e-19
C3653	XI3/XI1/D#15	GND	3.82381e-17
C3654	XI3/XI1/D#10	GND	6.97924e-18
C3655	XI3/XI1/XI4/PHINOT#4	GND	1.77609e-18
C3656	XI3/XI1/XI4/PHINOT#9	GND	5.23298e-17
C3657	XI3/XI1/XI4/PHINOT#6	GND	2.42089e-17
C3658	XI3/XI0/XI0/ANOT#4	GND	9.81082e-18
C3659	XI3/XI0/XI0/ANOT#9	GND	4.88348e-17
C3660	XI3/XI0/XI0/ANOT#6	GND	1.02907e-17
C3661	VDD#83	GND	3.60805e-19
C3662	VDD#82	GND	1.26825e-18
C3663	XI3/XI1/D#6	GND	1.74398e-17
C3664	XI3/XI1/D#16	GND	2.45897e-17
C3665	VDD#143	GND	7.14874e-20
C3666	VDD#80	GND	8.37146e-19
C3667	VDD#112	GND	5.95395e-17
C3668	VDD#144	GND	4.90747e-17
C3669	net21#14	GND	2.8667e-17
C3670	net21#21	GND	8.96238e-17
C3671	SOUT2#18	GND	4.38955e-17
C3672	SOUT2#20	GND	6.30224e-17
C3673	SOUT2#22	GND	3.18348e-17
C3674	net21#12	GND	8.67498e-18
C3675	net21#15	GND	1.18863e-17
C3676	net21#10	GND	1.10923e-17
C3677	SOUT2#14	GND	3.23603e-18
C3678	SOUT2#19	GND	1.94159e-17
C3679	SOUT2#16	GND	8.43156e-18
C3680	VDD#78	GND	3.11409e-18
C3681	VDD#76	GND	2.60645e-19
C3682	VDD#148	GND	2.30328e-19
C3683	VDD#74	GND	2.25295e-18
C3684	XI2/net1#6	GND	3.57652e-19
C3685	XI2/XI0/XI0/BNOT#14	GND	9.80305e-18
C3686	XI2/XI0/XI0/BNOT#9	GND	3.07644e-17
C3687	XI2/XI0/XI0/BNOT#11	GND	1.8348e-17
C3688	XI2/XI0/XI1/net2#13	GND	1.75343e-17
C3689	XI2/XI0/XI1/net2#15	GND	2.92719e-17
C3690	XI2/net1#4	GND	6.20306e-18
C3691	XI2/net1#9	GND	7.68836e-18
C3692	XI2/net1#16	GND	2.01534e-17
C3693	XI2/XI1/XI4/net24#11	GND	2.17241e-18
C3694	XI2/XI1/XI4/net24#12	GND	1.17061e-17
C3695	XI2/XI1/Q#11	GND	2.17936e-17
C3696	XI2/XI1/Q#9	GND	1.09498e-17
C3697	XI2/XI0/XI1/net2#12	GND	8.07284e-18
C3698	VDD#72	GND	3.74949e-19
C3699	VDD#149	GND	3.8563e-19
C3700	VDD#70	GND	1.60408e-18
C3701	SOUT2#11	GND	1.47001e-17
C3702	SOUT2#24	GND	1.94621e-17
C3703	XI2/XI1/D#20	GND	3.08439e-18
C3704	XI2/XI1/D#17	GND	1.03658e-17
C3705	XI2/XI0/XI1/net2#16	GND	6.12784e-18
C3706	XI2/XI1/Q#6	GND	4.30485e-18
C3707	XI2/XI1/Q#12	GND	1.07738e-17
C3708	VDD#150	GND	2.20938e-19
C3709	VDD#68	GND	1.74327e-18
C3710	VDD#117	GND	2.81797e-20
C3711	VDD#66	GND	6.91838e-19
C3712	XI2/XI0/XI1/XI0/net13#4	GND	1.30885e-17
C3713	XI2/XI0/XI1/net2#9	GND	6.73319e-19
C3714	XI2/XI1/Q#5	GND	2.09121e-18
C3715	XI2/XI1/Q#7	GND	2.16707e-19
C3716	XI2/XI1/XI4/net24#13	GND	1.93822e-17
C3717	XI2/XI1/XI4/net24#6	GND	7.33241e-18
C3718	XI2/XI1/XI4/net24#9	GND	1.65682e-17
C3719	VDD#64	GND	1.17069e-18
C3720	XI2/XI1/D#19	GND	3.36909e-17
C3721	XI2/XI1/D#14	GND	2.50795e-17
C3722	net14#17	GND	2.67287e-17
C3723	net14#19	GND	4.2371e-17
C3724	VDD#62	GND	4.14886e-19
C3725	XI2/XI0/XI0/BNOT#5	GND	1.84278e-19
C3726	XI2/XI0/XI0/BNOT#10	GND	3.17641e-17
C3727	XI2/XI0/XI0/BNOT#7	GND	2.10842e-17
C3728	XI2/XI1/D#7	GND	8.64157e-19
C3729	XI2/XI1/XI5/net13#3	GND	1.06358e-17
C3730	VDD#153	GND	1.23331e-18
C3731	VDD#60	GND	2.68286e-19
C3732	XI2/XI1/D#15	GND	3.82381e-17
C3733	XI2/XI1/D#10	GND	6.97924e-18
C3734	XI2/XI1/XI4/PHINOT#4	GND	1.77609e-18
C3735	XI2/XI1/XI4/PHINOT#9	GND	5.23298e-17
C3736	XI2/XI1/XI4/PHINOT#6	GND	2.42089e-17
C3737	XI2/XI0/XI0/ANOT#4	GND	9.81082e-18
C3738	XI2/XI0/XI0/ANOT#9	GND	4.88348e-17
C3739	XI2/XI0/XI0/ANOT#6	GND	1.02907e-17
C3740	VDD#57	GND	3.60805e-19
C3741	VDD#56	GND	1.26825e-18
C3742	XI2/XI1/D#6	GND	1.74398e-17
C3743	XI2/XI1/D#16	GND	2.45897e-17
C3744	VDD#154	GND	7.14874e-20
C3745	VDD#54	GND	8.37146e-19
C3746	VDD#119	GND	5.95395e-17
C3747	VDD#155	GND	4.90747e-17
C3748	net14#14	GND	2.8667e-17
C3749	net14#21	GND	8.96238e-17
C3750	SOUT1#18	GND	4.38955e-17
C3751	SOUT1#20	GND	6.30224e-17
C3752	SOUT1#22	GND	3.18348e-17
C3753	net14#12	GND	8.67498e-18
C3754	net14#15	GND	1.18863e-17
C3755	net14#10	GND	1.10923e-17
C3756	SOUT1#14	GND	3.23603e-18
C3757	SOUT1#19	GND	1.94159e-17
C3758	SOUT1#16	GND	8.43156e-18
C3759	VDD#52	GND	3.11409e-18
C3760	VDD#50	GND	2.60645e-19
C3761	VDD#159	GND	2.30328e-19
C3762	VDD#48	GND	2.25295e-18
C3763	XI1/net1#6	GND	3.57652e-19
C3764	XI1/XI0/XI0/BNOT#14	GND	9.80305e-18
C3765	XI1/XI0/XI0/BNOT#9	GND	3.07644e-17
C3766	XI1/XI0/XI0/BNOT#11	GND	1.8348e-17
C3767	XI1/XI0/XI1/net2#13	GND	1.75343e-17
C3768	XI1/XI0/XI1/net2#15	GND	2.92719e-17
C3769	XI1/net1#4	GND	6.20306e-18
C3770	XI1/net1#9	GND	7.68836e-18
C3771	XI1/net1#16	GND	2.01534e-17
C3772	XI1/XI1/XI4/net24#11	GND	2.17241e-18
C3773	XI1/XI1/XI4/net24#12	GND	1.17061e-17
C3774	XI1/XI1/Q#11	GND	2.17936e-17
C3775	XI1/XI1/Q#9	GND	1.09498e-17
C3776	XI1/XI0/XI1/net2#12	GND	8.07284e-18
C3777	VDD#46	GND	3.74949e-19
C3778	VDD#160	GND	3.8563e-19
C3779	VDD#44	GND	1.60408e-18
C3780	SOUT1#11	GND	1.47001e-17
C3781	SOUT1#24	GND	1.94621e-17
C3782	XI1/XI1/D#20	GND	3.08439e-18
C3783	XI1/XI1/D#17	GND	1.03658e-17
C3784	XI1/XI0/XI1/net2#16	GND	6.12784e-18
C3785	XI1/XI1/Q#6	GND	4.30485e-18
C3786	XI1/XI1/Q#12	GND	1.07738e-17
C3787	VDD#161	GND	2.20938e-19
C3788	VDD#42	GND	1.74327e-18
C3789	VDD#124	GND	2.81797e-20
C3790	VDD#40	GND	6.91838e-19
C3791	XI1/XI0/XI1/XI0/net13#4	GND	1.30885e-17
C3792	XI1/XI0/XI1/net2#9	GND	6.73319e-19
C3793	XI1/XI1/Q#5	GND	2.09121e-18
C3794	XI1/XI1/Q#7	GND	2.16707e-19
C3795	XI1/XI1/XI4/net24#13	GND	1.93822e-17
C3796	XI1/XI1/XI4/net24#6	GND	7.33241e-18
C3797	XI1/XI1/XI4/net24#9	GND	1.65682e-17
C3798	VDD#38	GND	1.17069e-18
C3799	XI1/XI1/D#19	GND	3.36909e-17
C3800	XI1/XI1/D#14	GND	2.50795e-17
C3801	net7#17	GND	2.67287e-17
C3802	net7#19	GND	4.2371e-17
C3803	VDD#36	GND	4.14886e-19
C3804	XI1/XI0/XI0/BNOT#5	GND	1.84278e-19
C3805	XI1/XI0/XI0/BNOT#10	GND	3.17641e-17
C3806	XI1/XI0/XI0/BNOT#7	GND	2.10842e-17
C3807	XI1/XI1/D#7	GND	8.64157e-19
C3808	XI1/XI1/XI5/net13#3	GND	1.06358e-17
C3809	VDD#164	GND	1.23331e-18
C3810	VDD#34	GND	2.68286e-19
C3811	XI1/XI1/D#15	GND	3.82381e-17
C3812	XI1/XI1/D#10	GND	6.97924e-18
C3813	XI1/XI1/XI4/PHINOT#4	GND	1.77609e-18
C3814	XI1/XI1/XI4/PHINOT#9	GND	5.23298e-17
C3815	XI1/XI1/XI4/PHINOT#6	GND	2.42089e-17
C3816	XI1/XI0/XI0/ANOT#4	GND	9.81082e-18
C3817	XI1/XI0/XI0/ANOT#9	GND	4.88348e-17
C3818	XI1/XI0/XI0/ANOT#6	GND	1.02907e-17
C3819	VDD#31	GND	3.60805e-19
C3820	VDD#30	GND	1.26825e-18
C3821	XI1/XI1/D#6	GND	1.74398e-17
C3822	XI1/XI1/D#16	GND	2.45897e-17
C3823	VDD#165	GND	7.14874e-20
C3824	VDD#28	GND	8.37146e-19
C3825	VDD#126	GND	5.95395e-17
C3826	VDD#166	GND	4.90747e-17
C3827	net7#14	GND	2.8667e-17
C3828	net7#21	GND	8.96238e-17
C3829	SOUT0#18	GND	4.38955e-17
C3830	SOUT0#20	GND	6.30224e-17
C3831	SOUT0#22	GND	3.18348e-17
C3832	net7#12	GND	8.67498e-18
C3833	net7#15	GND	1.18863e-17
C3834	net7#10	GND	1.10923e-17
C3835	SOUT0#14	GND	3.23603e-18
C3836	SOUT0#19	GND	1.94159e-17
C3837	SOUT0#16	GND	8.43156e-18
C3838	VDD#26	GND	3.11409e-18
C3839	VDD#24	GND	2.60645e-19
C3840	VDD#170	GND	2.30328e-19
C3841	VDD#22	GND	2.25295e-18
C3842	XI0/net1#6	GND	3.57652e-19
C3843	XI0/XI0/XI0/BNOT#14	GND	9.80305e-18
C3844	XI0/XI0/XI0/BNOT#9	GND	3.07653e-17
C3845	XI0/XI0/XI0/BNOT#11	GND	1.8348e-17
C3846	XI0/XI0/XI1/net2#13	GND	1.75343e-17
C3847	XI0/XI0/XI1/net2#15	GND	2.92719e-17
C3848	XI0/net1#4	GND	6.20306e-18
C3849	XI0/net1#9	GND	7.68836e-18
C3850	XI0/net1#16	GND	2.01534e-17
C3851	XI0/XI1/XI4/net24#11	GND	2.17241e-18
C3852	XI0/XI1/XI4/net24#12	GND	1.17061e-17
C3853	XI0/XI1/Q#11	GND	2.17936e-17
C3854	XI0/XI1/Q#9	GND	1.09498e-17
C3855	XI0/XI0/XI1/net2#12	GND	8.07284e-18
C3856	VDD#20	GND	3.74949e-19
C3857	VDD#171	GND	3.8563e-19
C3858	VDD#18	GND	1.60408e-18
C3859	SOUT0#11	GND	1.47042e-17
C3860	SOUT0#24	GND	1.88875e-17
C3861	XI0/XI1/D#20	GND	3.08439e-18
C3862	XI0/XI1/D#17	GND	1.03658e-17
C3863	XI0/XI0/XI1/net2#16	GND	6.12784e-18
C3864	XI0/XI1/Q#6	GND	4.30485e-18
C3865	XI0/XI1/Q#12	GND	1.07738e-17
C3866	VDD#172	GND	2.20938e-19
C3867	VDD#16	GND	1.74327e-18
C3868	VDD#131	GND	2.81797e-20
C3869	VDD#14	GND	6.91838e-19
C3870	XI0/XI0/XI1/XI0/net13#4	GND	1.30885e-17
C3871	XI0/XI0/XI1/net2#9	GND	6.73319e-19
C3872	XI0/XI1/Q#5	GND	2.09121e-18
C3873	XI0/XI1/Q#7	GND	2.16707e-19
C3874	XI0/XI1/XI4/net24#13	GND	1.93822e-17
C3875	XI0/XI1/XI4/net24#6	GND	7.33241e-18
C3876	XI0/XI1/XI4/net24#9	GND	1.65682e-17
C3877	VDD#12	GND	6.90231e-19
C3878	XI0/XI1/D#19	GND	3.36909e-17
C3879	XI0/XI1/D#14	GND	2.50795e-17
C3880	CIN#11	GND	2.54602e-17
C3881	CIN#13	GND	4.17187e-17
C3882	VDD#10	GND	4.14886e-19
C3883	XI0/XI0/XI0/BNOT#5	GND	1.84278e-19
C3884	XI0/XI0/XI0/BNOT#10	GND	3.17641e-17
C3885	XI0/XI0/XI0/BNOT#7	GND	2.0708e-17
C3886	XI0/XI1/D#7	GND	8.64157e-19
C3887	XI0/XI1/XI5/net13#3	GND	1.06358e-17
C3888	VDD#175	GND	1.23331e-18
C3889	VDD#8	GND	2.68286e-19
C3890	XI0/XI1/D#15	GND	3.82381e-17
C3891	XI0/XI1/D#10	GND	6.97924e-18
C3892	XI0/XI1/XI4/PHINOT#4	GND	1.77609e-18
C3893	XI0/XI1/XI4/PHINOT#9	GND	5.23298e-17
C3894	XI0/XI1/XI4/PHINOT#6	GND	2.42089e-17
C3895	XI0/XI0/XI0/ANOT#4	GND	9.82796e-18
C3896	XI0/XI0/XI0/ANOT#9	GND	4.88217e-17
C3897	XI0/XI0/XI0/ANOT#6	GND	1.02907e-17
C3898	VDD#5	GND	3.60805e-19
C3899	VDD#4	GND	1.26825e-18
C3900	XI0/XI1/D#6	GND	1.74398e-17
C3901	XI0/XI1/D#16	GND	2.47453e-17
C3902	VDD#176	GND	7.14874e-20
C3903	VDD#2	GND	8.37146e-19
C3904	VDD#103	GND	3.24858e-19
C3905	VDD#85	GND	1.61383e-19
C3906	VDD#77	GND	3.24858e-19
C3907	VDD#59	GND	1.61383e-19
C3908	VDD#51	GND	3.24858e-19
C3909	VDD#33	GND	1.61383e-19
C3910	VDD#25	GND	3.24858e-19
C3911	VDD#7	GND	1.61383e-19
C3912	XI3/XI1/Q#8	GND	8.40992e-20
C3913	XI2/XI1/Q#8	GND	8.40992e-20
C3914	XI1/XI1/Q#8	GND	8.40992e-20
C3915	XI0/XI1/Q#8	GND	8.40992e-20
C3916	XI0/XI1/XI5/net13#5	GND	1.07128e-17
C3917	XI0/XI1/D#12	GND	5.19098e-18
C3918	XI0/XI0/XI1/XI0/net13#2	GND	1.40813e-17
C3919	XI0/XI0/XI1/net2#5	GND	1.61789e-18
C3920	XI0/net1#11	GND	3.5721e-19
C3921	XI0/net1#14	GND	8.13405e-18
C3922	XI0/net1#18	GND	6.35766e-18
C3923	XI1/XI1/XI5/net13#5	GND	1.07128e-17
C3924	XI1/XI1/D#12	GND	5.19098e-18
C3925	XI1/XI0/XI1/XI0/net13#2	GND	1.40813e-17
C3926	XI1/XI0/XI1/net2#5	GND	1.61789e-18
C3927	XI1/net1#11	GND	3.5721e-19
C3928	XI1/net1#14	GND	8.13405e-18
C3929	XI1/net1#18	GND	6.35766e-18
C3930	XI2/XI1/XI5/net13#5	GND	1.07128e-17
C3931	XI2/XI1/D#12	GND	5.19098e-18
C3932	XI2/XI0/XI1/XI0/net13#2	GND	1.40813e-17
C3933	XI2/XI0/XI1/net2#5	GND	1.61789e-18
C3934	XI2/net1#11	GND	3.5721e-19
C3935	XI2/net1#14	GND	8.13405e-18
C3936	XI2/net1#18	GND	6.35766e-18
C3937	XI3/XI1/XI5/net13#5	GND	1.07128e-17
C3938	XI3/XI1/D#12	GND	5.19098e-18
C3939	XI3/XI0/XI1/XI0/net13#2	GND	1.40813e-17
C3940	XI3/XI0/XI1/net2#5	GND	1.61789e-18
C3941	XI3/net1#11	GND	3.5721e-19
C3942	XI3/net1#14	GND	8.13405e-18
C3943	XI3/net1#18	GND	6.35766e-18
C3944	PHI#25	GND	5.02545e-17
C3945	RST#13	GND	9.43711e-17
*
*
.ENDS BIT_ACCUM
*
