$DATA1 SOURCE='PrimeSim HSPICE' VERSION='T-2022.06-3 linux64' PARAM_COUNT=0
.TITLE '** 4-bit accumulator power characterization @ 1000mhz, 1.1v supply'
 pavg             temper           alter#          
 -7.346e-05        2.500e+01       1               
