$DATA1 SOURCE='PrimeSim HSPICE' VERSION='T-2022.06-3 linux64' PARAM_COUNT=0
.TITLE '** 4-bit accumulator complete simulation file'
 sout_2ns         sout_4ns         sout_6ns         temper          
 alter#          
  2.549e-05        1.100e+00        1.100e+00        2.500e+01      
1               
